REMARK  2 active torsions:
REMARK  status: ('A' for Active; 'I' for Inactive)
REMARK    1  A    between atoms: C8_8  and  C11_13 
REMARK    2  A    between atoms: C11_13  and  N1_14 
ROOT
ATOM      1  C1  <0> d   1      -4.940  -0.215   1.722  0.00  0.00     0.048 C 
ATOM      2  C2  <0> d   1      -3.604  -0.544   2.337  0.00  0.00    -0.061 A 
ATOM      3  C3  <0> d   1      -3.544  -1.017   3.640  0.00  0.00     0.009 A 
ATOM      4  C4  <0> d   1      -2.331  -1.324   4.221  0.00  0.00     0.039 A 
ATOM      5  C5  <0> d   1      -1.157  -1.161   3.497  0.00  0.00     0.090 A 
ATOM      6  C6  <0> d   1      -1.222  -0.683   2.177  0.00  0.00     0.006 A 
ATOM      7  C7  <0> d   1      -2.461  -0.376   1.606  0.00  0.00     0.021 A 
ATOM      8  C8  <0> d   1       0.022  -0.514   1.420  0.00  0.00    -0.021 A 
ATOM      9  C9  <0> d   1       1.191  -0.835   2.029  0.00  0.00     0.092 A 
ATOM     10  C10 <0> d   1       1.183  -1.306   3.360  0.00  0.00     0.288 A 
ATOM     11  O1  <0> d   1       2.239  -1.586   3.897  0.00  0.00    -0.260 OA
ATOM     12  O2  <0> d   1       0.040  -1.458   4.047  0.00  0.00    -0.275 OA
ENDROOT
BRANCH   8  13
ATOM     13  C11 <0> d   1       0.002  -0.004   0.002  0.00  0.00     0.168 C 
BRANCH  13  14
ATOM     14  N1  <0> d   1      -0.018   1.461   0.010  0.00  0.00    -0.347 N 
ATOM     15  C14 <0> d   1       1.058   2.277   0.004  0.00  0.00     0.182 A 
ATOM     16  N2  <0> d   1       0.644   3.513   0.015  0.00  0.00    -0.361 N 
ATOM     17  C13 <0> d   1      -0.696   3.533   0.028  0.00  0.00     0.106 A 
ATOM     18  H13 <0> d   1       1.250   4.343   0.013  0.00  0.00     0.166 HD
ATOM     19  C12 <0> d   1      -1.131   2.258   0.019  0.00  0.00     0.109 A 
ENDBRANCH  13  14
ENDBRANCH   8  13
TORSDOF 2
