REMARK  10 active torsions:
REMARK  status: ('A' for Active; 'I' for Inactive)
REMARK    1  A    between atoms: C2_2  and  O1_3 
REMARK    2  A    between atoms: O1_3  and  C3_4 
REMARK    3  A    between atoms: C3_4  and  C4_6 
REMARK    4  A    between atoms: C7_9  and  O3_12 
REMARK    5  A    between atoms: O3_12  and  C10_13 
REMARK    6  A    between atoms: C10_13  and  C11_14 
REMARK    7  A    between atoms: C11_14  and  C12_16 
REMARK    8  A    between atoms: C15_19  and  O7_30 
REMARK    9  A    between atoms: C16_20  and  C18_23 
REMARK   10  A    between atoms: C18_23  and  N1_24 
ROOT
ATOM      1  C12 <0> d   1       1.234  -0.682  -0.013  0.00  0.00     0.049 A 
ATOM      2  C13 <0> d   1       2.429   0.051  -0.021  0.00  0.00     0.021 A 
ATOM      3  C14 <0> d   1       2.395   1.414  -0.014  0.00  0.00     0.038 A 
ATOM      4  C15 <0> d   1       1.176   2.089   0.002  0.00  0.00     0.076 A 
ATOM      5  C16 <0> d   1      -0.017   1.380   0.010  0.00  0.00     0.041 A 
ATOM      6  C17 <0> d   1       0.002  -0.004   0.002  0.00  0.00     0.132 A 
ATOM      7  O5  <0> d   1      -1.161  -0.702   0.009  0.00  0.00    -0.190 OA
ENDROOT
BRANCH   1   8
ATOM      8  C11 <0> d   1       1.269  -2.147  -0.021  0.00  0.00     0.186 C 
ATOM      9  O4  <0> d   1       0.232  -2.778  -0.014  0.00  0.00    -0.290 OA
BRANCH   8  10
ATOM     10  C10 <0> d   1       2.591  -2.869  -0.038  0.00  0.00     0.259 C 
BRANCH  10  11
ATOM     11  O3  <0> d   1       2.363  -4.280  -0.043  0.00  0.00    -0.344 OA
BRANCH  11  12
ATOM     12  C7  <0> d   1       3.458  -5.081  -0.057  0.00  0.00     0.069 A 
ATOM     13  C6  <0> d   1       3.306  -6.463  -0.063  0.00  0.00     0.038 A 
ATOM     14  C5  <0> d   1       4.415  -7.279  -0.078  0.00  0.00     0.020 A 
ATOM     15  C4  <0> d   1       5.694  -6.717  -0.088  0.00  0.00     0.039 A 
ATOM     16  C9  <0> d   1       5.843  -5.327  -0.083  0.00  0.00     0.020 A 
ATOM     17  C8  <0> d   1       4.729  -4.518  -0.072  0.00  0.00     0.038 A 
BRANCH  15  18
ATOM     18  C3  <0> d   1       6.884  -7.587  -0.103  0.00  0.00     0.293 C 
ATOM     19  O2  <0> d   1       6.753  -8.795  -0.107  0.00  0.00    -0.259 OA
BRANCH  18  20
ATOM     20  O1  <0> d   1       8.117  -7.043  -0.113  0.00  0.00    -0.318 OA
BRANCH  20  21
ATOM     21  C2  <0> d   1       9.242  -7.960  -0.128  0.00  0.00     0.174 C 
ATOM     22  C1  <0> d   1      10.549  -7.165  -0.137  0.00  0.00     0.034 C 
ENDBRANCH  20  21
ENDBRANCH  18  20
ENDBRANCH  15  18
ENDBRANCH  11  12
ENDBRANCH  10  11
ENDBRANCH   8  10
ENDBRANCH   1   8
BRANCH   5  23
ATOM     23  C18 <0> d   1      -1.331   2.116   0.020  0.00  0.00     0.317 C 
BRANCH  23  24
ATOM     24  N1  <0> d   1      -1.752   2.348   1.408  0.00  0.00     0.097 N 
ATOM     25  C22 <0> d   1      -2.900   3.264   1.465  0.00  0.00     0.299 C 
ATOM     26  C21 <0> d   1      -3.267   3.525   2.928  0.00  0.00     0.198 C 
ATOM     27  O6  <0> d   1      -3.537   2.278   3.576  0.00  0.00    -0.388 OA
ATOM     28  C20 <0> d   1      -2.439   1.362   3.540  0.00  0.00     0.198 C 
ATOM     29  C19 <0> d   1      -2.064   1.080   2.083  0.00  0.00     0.299 C 
ENDBRANCH  23  24
ENDBRANCH   5  23
BRANCH   4  30
ATOM     30  O7  <0> d   1       1.155   3.445   0.009  0.00  0.00    -0.360 OA
ATOM     31  H24 <0> d   1       0.194   3.980   0.021  0.00  0.00     0.217 HD
ENDBRANCH   4  30
TORSDOF 10
