REMARK  6 active torsions:
REMARK  status: ('A' for Active; 'I' for Inactive)
REMARK    1  A    between atoms: N2_5  and  C6_8 
REMARK    2  A    between atoms: C6_8  and  C7_9 
REMARK    3  A    between atoms: C8_10  and  O5_30 
REMARK    4  A    between atoms: C14_17  and  C15_18 
REMARK    5  A    between atoms: C18_21  and  C21_24 
REMARK    6  A    between atoms: C21_24  and  O3_26 
ROOT
ATOM      1  C7  <0> d   1       2.239  -4.060   1.258  0.00  0.00     0.036 A 
ATOM      2  C8  <0> d   1       3.564  -4.389   1.021  0.00  0.00     0.076 A 
ATOM      3  C9  <0> d   1       4.281  -5.150   1.940  0.00  0.00     0.038 A 
ATOM      4  C10 <0> d   1       3.681  -5.581   3.090  0.00  0.00     0.021 A 
ATOM      5  C11 <0> d   1       2.348  -5.258   3.342  0.00  0.00     0.051 A 
ATOM      6  C12 <0> d   1       1.616  -4.486   2.424  0.00  0.00     0.101 A 
ATOM      7  O1  <0> d   1       0.360  -4.298   2.885  0.00  0.00    -0.305 OA
ATOM      8  C13 <0> d   1       0.168  -4.894   4.084  0.00  0.00     0.127 A 
ATOM      9  C14 <0> d   1      -0.979  -4.890   4.807  0.00  0.00     0.053 C 
ATOM     10  C23 <0> d   1       1.431  -5.559   4.456  0.00  0.00     0.218 A 
ATOM     11  O4  <0> d   1       1.667  -6.201   5.464  0.00  0.00    -0.284 OA
ENDROOT
BRANCH   9  12
ATOM     12  C15 <0> d   1      -2.205  -4.314   4.237  0.00  0.00    -0.033 A 
ATOM     13  C20 <0> d   1      -3.343  -4.158   5.037  0.00  0.00     0.012 A 
ATOM     14  C19 <0> d   1      -4.485  -3.616   4.505  0.00  0.00     0.018 A 
ATOM     15  C18 <0> d   1      -4.516  -3.229   3.162  0.00  0.00     0.039 A 
ATOM     16  C17 <0> d   1      -3.381  -3.389   2.361  0.00  0.00     0.018 A 
ATOM     17  C16 <0> d   1      -2.237  -3.926   2.892  0.00  0.00     0.012 A 
BRANCH  15  18
ATOM     18  C21 <0> d   1      -5.748  -2.650   2.590  0.00  0.00     0.292 C 
ATOM     19  O2  <0> d   1      -5.775  -2.313   1.423  0.00  0.00    -0.259 OA
BRANCH  18  20
ATOM     20  O3  <0> d   1      -6.841  -2.495   3.361  0.00  0.00    -0.323 OA
ATOM     21  C22 <0> d   1      -7.997  -1.929   2.742  0.00  0.00     0.213 C 
ENDBRANCH  18  20
ENDBRANCH  15  18
ENDBRANCH   9  12
BRANCH   1  22
ATOM     22  C6  <0> d   1       1.475  -3.236   0.255  0.00  0.00     0.279 C 
BRANCH  22  23
ATOM     23  N2  <0> d   1       1.636  -1.810   0.569  0.00  0.00    -0.064 N 
ATOM     24  C3  <0> d   1       0.992  -1.002  -0.476  0.00  0.00     0.265 C 
ATOM     25  C2  <0> d   1       1.175   0.483  -0.159  0.00  0.00     0.299 C 
ATOM     26  N1  <0> d   1       0.577   0.779   1.151  0.00  0.00     0.087 N 
ATOM     27  C1  <0> d   1       0.682   2.209   1.467  0.00  0.00     0.310 C 
ATOM     28  C5  <0> d   1       1.194  -0.040   2.204  0.00  0.00     0.299 C 
ATOM     29  C4  <0> d   1       1.011  -1.522   1.867  0.00  0.00     0.265 C 
ATOM     30  H25 <0> d   1       2.618  -1.583   0.612  0.00  0.00     0.280 HD
ENDBRANCH  22  23
ENDBRANCH   1  22
BRANCH   2  31
ATOM     31  O5  <0> d   1       4.168  -3.966  -0.119  0.00  0.00    -0.360 OA
ATOM     32  H24 <0> d   1       4.600  -3.104  -0.038  0.00  0.00     0.217 HD
ENDBRANCH   2  31
TORSDOF 6
