REMARK  6 active torsions:
REMARK  status: ('A' for Active; 'I' for Inactive)
REMARK    1  A    between atoms: O1_2  and  C2_3 
REMARK    2  A    between atoms: C6_7  and  C9_11 
REMARK    3  A    between atoms: C7_8  and  O2_9 
REMARK    4  A    between atoms: C16_19  and  C18_22 
REMARK    5  A    between atoms: C18_22  and  N1_23 
REMARK    6  A    between atoms: N2_26  and  C23_29 
ROOT
ATOM      1  C9  <0> d   1       1.577  -3.849  -2.251  0.00  0.00     0.055 C 
ATOM      2  C10 <0> d   1       1.882  -4.549  -3.374  0.00  0.00     0.128 A 
ATOM      3  C11 <0> d   1       1.635  -5.980  -3.599  0.00  0.00     0.218 A 
ATOM      4  O3  <0> d   1       1.122  -6.778  -2.834  0.00  0.00    -0.284 OA
ATOM      5  C12 <0> d   1       2.145  -6.234  -4.959  0.00  0.00     0.051 A 
ATOM      6  C13 <0> d   1       2.207  -7.377  -5.757  0.00  0.00     0.021 A 
ATOM      7  C14 <0> d   1       2.750  -7.305  -7.009  0.00  0.00     0.041 A 
ATOM      8  C15 <0> d   1       3.240  -6.093  -7.489  0.00  0.00     0.118 A 
ATOM      9  C16 <0> d   1       3.186  -4.951  -6.708  0.00  0.00     0.041 A 
ATOM     10  C17 <0> d   1       2.636  -5.007  -5.433  0.00  0.00     0.101 A 
ATOM     11  O4  <0> d   1       2.464  -4.053  -4.492  0.00  0.00    -0.305 OA
ATOM     12  O5  <0> d   1       3.778  -6.032  -8.734  0.00  0.00    -0.191 OA
ENDROOT
BRANCH   9  13
ATOM     13  C18 <0> d   1       3.721  -3.647  -7.241  0.00  0.00     0.317 C 
BRANCH  13  14
ATOM     14  N1  <0> d   1       2.648  -2.925  -7.938  0.00  0.00     0.096 N 
ATOM     15  C22 <0> d   1       3.062  -1.554  -8.264  0.00  0.00     0.292 C 
ATOM     16  C21 <0> d   1       1.862  -0.781  -8.822  0.00  0.00     0.153 C 
ATOM     17  N2  <0> d   1       1.297  -1.544  -9.946  0.00  0.00    -0.378 N 
ATOM     18  C20 <0> d   1       0.984  -2.966  -9.734  0.00  0.00     0.153 C 
ATOM     19  C19 <0> d   1       2.218  -3.652  -9.139  0.00  0.00     0.292 C 
BRANCH  17  20
ATOM     20  C23 <0> d   1       1.063  -0.934 -11.182  0.00  0.00     0.030 A 
ATOM     21  C28 <0> d   1       1.241   0.435 -11.326  0.00  0.00     0.032 A 
ATOM     22  C27 <0> d   1       1.014   1.035 -12.550  0.00  0.00     0.044 A 
ATOM     23  C26 <0> d   1       0.600   0.273 -13.629  0.00  0.00     0.116 A 
ATOM     24  C25 <0> d   1       0.417  -1.092 -13.486  0.00  0.00     0.044 A 
ATOM     25  F1  <0> d   1       0.375   0.862 -14.824  0.00  0.00    -0.206 F 
ATOM     26  C24 <0> d   1       0.648  -1.697 -12.266  0.00  0.00     0.032 A 
ENDBRANCH  17  20
ENDBRANCH  13  14
ENDBRANCH   9  13
BRANCH   1  27
ATOM     27  C6  <0> d   1       1.833  -2.405  -2.194  0.00  0.00     0.003 A 
ATOM     28  C5  <0> d   1       2.197  -1.708  -3.353  0.00  0.00     0.014 A 
ATOM     29  C4  <0> d   1       2.436  -0.353  -3.294  0.00  0.00     0.004 A 
ATOM     30  C3  <0> d   1       2.318   0.328  -2.093  0.00  0.00     0.040 A 
ATOM     31  C2  <0> d   1       1.958  -0.347  -0.938  0.00  0.00     0.102 A 
ATOM     32  C7  <0> d   1       1.719  -1.715  -0.977  0.00  0.00     0.111 A 
BRANCH  31  33
ATOM     33  O1  <0> d   1       1.844   0.330   0.237  0.00  0.00    -0.353 OA
ATOM     34  C1  <0> d   1       2.104   1.735   0.204  0.00  0.00     0.210 C 
ENDBRANCH  31  33
BRANCH  32  35
ATOM     35  O2  <0> d   1       1.372  -2.381   0.155  0.00  0.00    -0.352 OA
ATOM     36  C8  <0> d   1      -0.023  -2.477   0.449  0.00  0.00     0.210 C 
ENDBRANCH  32  35
ENDBRANCH   1  27
TORSDOF 6
