REMARK  4 active torsions:
REMARK  status: ('A' for Active; 'I' for Inactive)
REMARK    1  A    between atoms: C5_5  and  C15_18 
REMARK    2  A    between atoms: C9_10  and  C10_11 
REMARK    3  A    between atoms: C10_11  and  C11_12 
REMARK    4  A    between atoms: C15_18  and  N1_19 
ROOT
ATOM      1  C1  <0> d   1      -8.087   2.352   0.051  0.00  0.00     0.049 C 
ATOM      2  C2  <0> d   1      -7.040   3.436   0.053  0.00  0.00    -0.042 A 
ATOM      3  C3  <0> d   1      -7.415   4.750   0.063  0.00  0.00     0.048 A 
ATOM      4  C4  <0> d   1      -6.451   5.754   0.065  0.00  0.00     0.118 A 
ATOM      5  C5  <0> d   1      -5.102   5.436   0.057  0.00  0.00     0.041 A 
ATOM      6  C6  <0> d   1      -4.705   4.106   0.047  0.00  0.00     0.102 A 
ATOM      7  C7  <0> d   1      -5.686   3.101   0.045  0.00  0.00     0.057 A 
ATOM      8  C8  <0> d   1      -4.958   1.820   0.034  0.00  0.00     0.219 A 
ATOM      9  O1  <0> d   1      -5.434   0.697   0.030  0.00  0.00    -0.284 OA
ATOM     10  C9  <0> d   1      -3.583   2.174   0.030  0.00  0.00     0.128 A 
ATOM     11  O2  <0> d   1      -3.486   3.524   0.043  0.00  0.00    -0.305 OA
ATOM     12  O4  <0> d   1      -6.835   7.056   0.074  0.00  0.00    -0.191 OA
ENDROOT
BRANCH   5  13
ATOM     13  C15 <0> d   1      -4.068   6.532   0.058  0.00  0.00     0.317 C 
BRANCH  13  14
ATOM     14  N1  <0> d   1      -3.739   6.896  -1.327  0.00  0.00     0.097 N 
ATOM     15  C19 <0> d   1      -2.917   8.115  -1.370  0.00  0.00     0.299 C 
ATOM     16  C18 <0> d   1      -2.648   8.491  -2.829  0.00  0.00     0.198 C 
ATOM     17  O3  <0> d   1      -2.020   7.391  -3.492  0.00  0.00    -0.388 OA
ATOM     18  C17 <0> d   1      -2.793   6.188  -3.470  0.00  0.00     0.198 C 
ATOM     19  C16 <0> d   1      -3.063   5.788  -2.017  0.00  0.00     0.299 C 
ENDBRANCH  13  14
ENDBRANCH   5  13
BRANCH  10  20
ATOM     20  C10 <0> d   1      -2.535   1.300   0.021  0.00  0.00     0.060 C 
BRANCH  20  21
ATOM     21  C11 <0> d   1      -1.209   1.787   0.017  0.00  0.00     0.007 A 
ATOM     22  S1  <0> d   1      -0.631   3.475   0.026  0.00  0.00    -0.102 SA
ATOM     23  C14 <0> d   1       1.075   3.167   0.008  0.00  0.00     0.050 A 
ATOM     24  C13 <0> d   1       1.147   1.809   0.001  0.00  0.00     0.008 A 
ATOM     25  C12 <0> d   1      -0.013   1.076   0.008  0.00  0.00     0.019 A 
ENDBRANCH  20  21
ENDBRANCH  10  20
TORSDOF 4
