REMARK  10 active torsions:
REMARK  status: ('A' for Active; 'I' for Inactive)
REMARK    1  A    between atoms: C2_2  and  C3_3 
REMARK    2  A    between atoms: C3_3  and  C4_4 
REMARK    3  A    between atoms: C4_4  and  N1_5 
REMARK    4  A    between atoms: N1_5  and  C5_6 
REMARK    5  A    between atoms: N1_5  and  C9_10 
REMARK    6  A    between atoms: C5_6  and  C6_7 
REMARK    7  A    between atoms: C6_7  and  C7_8 
REMARK    8  A    between atoms: C9_10  and  C10_11 
REMARK    9  A    between atoms: C11_12  and  O3_32 
REMARK   10  A    between atoms: C17_19  and  C18_20 
ROOT
ATOM      1  C10 <0> d   1       2.257  10.062   0.040  0.00  0.00     0.036 A 
ATOM      2  C11 <0> d   1       2.001  11.422   0.103  0.00  0.00     0.076 A 
ATOM      3  C12 <0> d   1       0.693  11.898   0.096  0.00  0.00     0.038 A 
ATOM      4  C13 <0> d   1      -0.356  11.025   0.026  0.00  0.00     0.021 A 
ATOM      5  C14 <0> d   1      -0.114   9.653  -0.037  0.00  0.00     0.051 A 
ATOM      6  C15 <0> d   1       1.202   9.162  -0.030  0.00  0.00     0.101 A 
ATOM      7  O1  <0> d   1       1.164   7.814  -0.100  0.00  0.00    -0.305 OA
ATOM      8  C16 <0> d   1      -0.109   7.357  -0.153  0.00  0.00     0.128 A 
ATOM      9  C17 <0> d   1      -0.483   6.049  -0.229  0.00  0.00     0.055 C 
ATOM     10  C27 <0> d   1      -0.990   8.471  -0.123  0.00  0.00     0.218 A 
ATOM     11  O2  <0> d   1      -2.209   8.453  -0.159  0.00  0.00    -0.284 OA
ENDROOT
BRANCH   1  12
ATOM     12  C9  <0> d   1       3.678   9.560   0.048  0.00  0.00     0.279 C 
BRANCH  12  13
ATOM     13  N1  <0> d   1       4.108   9.286  -1.329  0.00  0.00    -0.067 N 
ATOM     14  H32 <0> d   1       3.279   8.781  -1.848  0.00  0.00     0.280 HD
BRANCH  13  15
ATOM     15  C4  <0> d   1       4.398  10.533  -2.048  0.00  0.00     0.235 C 
BRANCH  15  16
ATOM     16  C3  <0> d   1       5.595  11.230  -1.397  0.00  0.00     0.027 C 
BRANCH  16  17
ATOM     17  C2  <0> d   1       5.827  12.582  -2.074  0.00  0.00    -0.003 C 
ATOM     18  C1  <0> d   1       7.023  13.280  -1.423  0.00  0.00     0.005 C 
ENDBRANCH  16  17
ENDBRANCH  15  16
ENDBRANCH  13  15
BRANCH  13  19
ATOM     19  C5  <0> d   1       5.268   8.384  -1.349  0.00  0.00     0.235 C 
BRANCH  19  20
ATOM     20  C6  <0> d   1       5.458   7.828  -2.762  0.00  0.00     0.027 C 
BRANCH  20  21
ATOM     21  C7  <0> d   1       6.582   6.791  -2.755  0.00  0.00    -0.003 C 
ATOM     22  C8  <0> d   1       6.772   6.235  -4.168  0.00  0.00     0.005 C 
ENDBRANCH  20  21
ENDBRANCH  19  20
ENDBRANCH  13  19
ENDBRANCH  12  13
ENDBRANCH   1  12
BRANCH   2  23
ATOM     23  O3  <0> d   1       3.036  12.299   0.172  0.00  0.00    -0.360 OA
ATOM     24  H33 <0> d   1       2.838  13.380   0.222  0.00  0.00     0.217 HD
ENDBRANCH   2  23
BRANCH   9  25
ATOM     25  C18 <0> d   1       0.533   4.999  -0.259  0.00  0.00    -0.005 A 
ATOM     26  C21 <0> d   1       0.301   3.544  -0.339  0.00  0.00     0.002 A 
ATOM     27  C20 <0> d   1       1.573   2.949  -0.339  0.00  0.00     0.045 A 
ATOM     28  C22 <0> d   1      -0.841   2.751  -0.406  0.00  0.00     0.014 A 
ATOM     29  N2  <0> d   1       2.510   3.960  -0.266  0.00  0.00    -0.360 N 
ATOM     30  C25 <0> d   1       1.677   1.563  -0.408  0.00  0.00     0.030 A 
ATOM     31  C19 <0> d   1       1.900   5.170  -0.218  0.00  0.00     0.103 A 
ATOM     32  C26 <0> d   1       3.960   3.754  -0.242  0.00  0.00     0.156 C 
ATOM     33  C24 <0> d   1       0.538   0.790  -0.474  0.00  0.00     0.002 A 
ATOM     34  C23 <0> d   1      -0.718   1.381  -0.479  0.00  0.00     0.001 A 
ENDBRANCH   9  25
TORSDOF 10
