REMARK  8 active torsions:
REMARK  status: ('A' for Active; 'I' for Inactive)
REMARK    1  A    between atoms: C2_2  and  N1_3 
REMARK    2  A    between atoms: N2_6  and  C7_9 
REMARK    3  A    between atoms: C7_9  and  C8_10 
REMARK    4  A    between atoms: C8_10  and  O1_11 
REMARK    5  A    between atoms: O1_11  and  C9_12 
REMARK    6  A    between atoms: C16_20  and  C18_23 
REMARK    7  A    between atoms: C21_26  and  O5_31 
REMARK    8  A    between atoms: C22_27  and  O4_29 
ROOT
ATOM      1  C9  <0> d   1      -6.436  -2.139  -0.553  0.00  0.00     0.071 A 
ATOM      2  C10 <0> d   1      -5.549  -2.454  -1.581  0.00  0.00     0.038 A 
ATOM      3  C11 <0> d   1      -4.333  -1.837  -1.654  0.00  0.00     0.021 A 
ATOM      4  C12 <0> d   1      -3.979  -0.888  -0.694  0.00  0.00     0.049 A 
ATOM      5  C13 <0> d   1      -4.866  -0.564   0.346  0.00  0.00     0.091 A 
ATOM      6  C14 <0> d   1      -6.099  -1.200   0.406  0.00  0.00     0.075 A 
ATOM      7  O2  <0> d   1      -4.523   0.353   1.272  0.00  0.00    -0.321 OA
ATOM      8  C15 <0> d   1      -3.353   0.998   1.267  0.00  0.00     0.159 A 
ATOM      9  C16 <0> d   1      -2.404   0.782   0.320  0.00  0.00     0.048 A 
ATOM     10  C17 <0> d   1      -2.678  -0.197  -0.746  0.00  0.00     0.197 A 
ATOM     11  O3  <0> d   1      -1.865  -0.429  -1.625  0.00  0.00    -0.286 OA
ENDROOT
BRANCH   1  12
ATOM     12  O1  <0> d   1      -7.642  -2.760  -0.493  0.00  0.00    -0.349 OA
BRANCH  12  13
ATOM     13  C8  <0> d   1      -7.930  -3.719  -1.512  0.00  0.00     0.203 C 
BRANCH  13  14
ATOM     14  C7  <0> d   1      -9.323  -4.308  -1.279  0.00  0.00     0.261 C 
BRANCH  14  15
ATOM     15  N2  <0> d   1     -10.334  -3.254  -1.442  0.00  0.00    -0.066 N 
ATOM     16  C4  <0> d   1     -10.547  -2.943  -2.862  0.00  0.00     0.265 C 
ATOM     17  C3  <0> d   1     -11.545  -1.789  -2.985  0.00  0.00     0.300 C 
ATOM     18  N1  <0> d   1     -12.808  -2.167  -2.336  0.00  0.00     0.091 N 
ATOM     19  C6  <0> d   1     -12.595  -2.478  -0.916  0.00  0.00     0.300 C 
ATOM     20  C5  <0> d   1     -11.597  -3.632  -0.793  0.00  0.00     0.265 C 
ATOM     21  H31 <0> d   1      -9.957  -2.346  -0.948  0.00  0.00     0.280 HD
BRANCH  18  22
ATOM     22  C2  <0> d   1     -13.819  -1.113  -2.499  0.00  0.00     0.268 C 
ATOM     23  C1  <0> d   1     -15.180  -1.636  -2.036  0.00  0.00     0.037 C 
ENDBRANCH  18  22
ENDBRANCH  14  15
ENDBRANCH  13  14
ENDBRANCH  12  13
ENDBRANCH   1  12
BRANCH   9  24
ATOM     24  C18 <0> d   1      -1.119   1.523   0.354  0.00  0.00    -0.017 A 
ATOM     25  C23 <0> d   1      -1.117   2.910   0.491  0.00  0.00     0.052 A 
ATOM     26  C22 <0> d   1       0.083   3.598   0.517  0.00  0.00     0.102 A 
ATOM     27  C21 <0> d   1       1.286   2.903   0.411  0.00  0.00     0.101 A 
ATOM     28  C20 <0> d   1       1.282   1.523   0.280  0.00  0.00     0.040 A 
ATOM     29  C19 <0> d   1       0.087   0.832   0.254  0.00  0.00     0.015 A 
BRANCH  26  30
ATOM     30  O4  <0> d   1       0.089   4.951   0.646  0.00  0.00    -0.353 OA
ATOM     31  C24 <0> d   1      -1.181   5.598   0.749  0.00  0.00     0.210 C 
ENDBRANCH  26  30
BRANCH  27  32
ATOM     32  O5  <0> d   1       2.465   3.580   0.436  0.00  0.00    -0.353 OA
ATOM     33  C25 <0> d   1       3.660   2.805   0.322  0.00  0.00     0.210 C 
ENDBRANCH  27  32
ENDBRANCH   9  24
TORSDOF 8
