REMARK  4 active torsions:
REMARK  status: ('A' for Active; 'I' for Inactive)
REMARK    1  A    between atoms: C6_6  and  C7_7 
REMARK    2  A    between atoms: N1_19  and  C18_22 
REMARK    3  A    between atoms: C18_22  and  C19_23 
REMARK    4  A    between atoms: C19_23  and  N2_24 
ROOT
ATOM      1  C7  <0> d   1      -1.257  -0.758   0.010  0.00  0.00     0.053 C 
ATOM      2  C8  <0> d   1      -2.440  -0.102   0.128  0.00  0.00     0.127 A 
ATOM      3  C9  <0> d   1      -3.767  -0.721   0.260  0.00  0.00     0.218 A 
ATOM      4  O1  <0> d   1      -4.037  -1.909   0.287  0.00  0.00    -0.284 OA
ATOM      5  C10 <0> d   1      -4.698   0.418   0.353  0.00  0.00     0.051 A 
ATOM      6  C11 <0> d   1      -6.084   0.511   0.491  0.00  0.00     0.021 A 
ATOM      7  C12 <0> d   1      -6.680   1.737   0.550  0.00  0.00     0.038 A 
ATOM      8  C13 <0> d   1      -5.912   2.899   0.474  0.00  0.00     0.082 A 
ATOM      9  C14 <0> d   1      -4.537   2.821   0.339  0.00  0.00     0.038 A 
ATOM     10  C15 <0> d   1      -3.913   1.579   0.275  0.00  0.00     0.101 A 
ATOM     11  O2  <0> d   1      -2.612   1.241   0.150  0.00  0.00    -0.305 OA
ATOM     12  C16 <0> d   1      -3.695   4.069   0.263  0.00  0.00     0.319 C 
ATOM     13  N1  <0> d   1      -4.548   5.220  -0.064  0.00  0.00     0.117 N 
ATOM     14  C17 <0> d   1      -5.725   5.246   0.821  0.00  0.00     0.447 C 
ATOM     15  O3  <0> d   1      -6.536   4.105   0.533  0.00  0.00    -0.321 OA
ENDROOT
BRANCH   1  16
ATOM     16  C6  <0> d   1       0.002  -0.004   0.007  0.00  0.00    -0.031 A 
ATOM     17  C1  <0> d   1       1.227  -0.683   0.015  0.00  0.00     0.014 A 
ATOM     18  C2  <0> d   1       2.407   0.027   0.011  0.00  0.00     0.040 A 
ATOM     19  C3  <0> d   1       2.389   1.415   0.001  0.00  0.00     0.105 A 
ATOM     20  O6  <0> d   1       3.401   2.330  -0.005  0.00  0.00    -0.323 OA
ATOM     21  C4  <0> d   1       1.171   2.100  -0.007  0.00  0.00     0.105 A 
ATOM     22  C24 <0> d   1       2.799   3.574   0.397  0.00  0.00     0.352 C 
ATOM     23  O5  <0> d   1       1.426   3.441  -0.018  0.00  0.00    -0.323 OA
ATOM     24  C5  <0> d   1      -0.016   1.396  -0.004  0.00  0.00     0.051 A 
ENDBRANCH   1  16
BRANCH  13  25
ATOM     25  C18 <0> d   1      -3.793   6.477   0.028  0.00  0.00     0.305 C 
BRANCH  25  26
ATOM     26  C19 <0> d   1      -4.631   7.618  -0.554  0.00  0.00     0.302 C 
BRANCH  26  27
ATOM     27  N2  <0> d   1      -3.876   8.875  -0.463  0.00  0.00     0.094 N 
ATOM     28  C23 <0> d   1      -4.542   9.945  -1.220  0.00  0.00     0.298 C 
ATOM     29  C22 <0> d   1      -3.694  11.218  -1.147  0.00  0.00     0.198 C 
ATOM     30  O4  <0> d   1      -3.489  11.571   0.223  0.00  0.00    -0.388 OA
ATOM     31  C21 <0> d   1      -2.842  10.552   0.990  0.00  0.00     0.198 C 
ATOM     32  C20 <0> d   1      -3.682   9.273   0.940  0.00  0.00     0.298 C 
ENDBRANCH  26  27
ENDBRANCH  25  26
ENDBRANCH  13  25
TORSDOF 4
