REMARK  4 active torsions:
REMARK  status: ('A' for Active; 'I' for Inactive)
REMARK    1  A    between atoms: C6_6  and  C11_13 
REMARK    2  A    between atoms: C11_13  and  N1_14 
REMARK    3  A    between atoms: N2_17  and  C16_20 
REMARK    4  A    between atoms: C16_20  and  C17_21 
ROOT
ATOM      1  N1  <0> d   1      -1.908  -5.064  -1.849  0.00  0.00     0.096 N 
ATOM      2  C12 <0> d   1      -2.696  -3.894  -2.260  0.00  0.00     0.303 C 
ATOM      3  C13 <0> d   1      -4.140  -4.323  -2.528  0.00  0.00     0.303 C 
ATOM      4  N2  <0> d   1      -4.156  -5.357  -3.572  0.00  0.00     0.096 N 
ATOM      5  C14 <0> d   1      -3.368  -6.527  -3.161  0.00  0.00     0.303 C 
ATOM      6  C15 <0> d   1      -1.923  -6.098  -2.892  0.00  0.00     0.303 C 
ENDROOT
BRANCH   1   7
ATOM      7  C11 <0> d   1      -0.532  -4.679  -1.508  0.00  0.00     0.312 C 
BRANCH   7   8
ATOM      8  C6  <0> d   1      -0.551  -3.725  -0.343  0.00  0.00    -0.011 A 
ATOM      9  C5  <0> d   1      -1.140  -4.116   0.942  0.00  0.00     0.012 A 
ATOM     10  C4  <0> d   1      -1.702  -5.384   1.121  0.00  0.00    -0.048 A 
ATOM     11  C9  <0> d   1      -1.135  -3.194   2.003  0.00  0.00     0.091 A 
ATOM     12  C3  <0> d   1      -2.245  -5.720   2.330  0.00  0.00     0.014 A 
ATOM     13  C24 <0> d   1      -1.709  -6.376  -0.013  0.00  0.00     0.049 C 
ATOM     14  C2  <0> d   1      -2.242  -4.812   3.379  0.00  0.00    -0.059 A 
ATOM     15  C1  <0> d   1      -2.846  -5.202   4.704  0.00  0.00     0.048 C 
ATOM     16  C10 <0> d   1      -1.697  -3.555   3.221  0.00  0.00     0.045 A 
ATOM     17  O2  <0> d   1      -0.593  -1.970   1.828  0.00  0.00    -0.275 OA
ATOM     18  C8  <0> d   1      -0.051  -1.605   0.655  0.00  0.00     0.288 A 
ATOM     19  C7  <0> d   1      -0.022  -2.480  -0.452  0.00  0.00     0.092 A 
ATOM     20  O1  <0> d   1       0.426  -0.490   0.544  0.00  0.00    -0.260 OA
ENDBRANCH   7   8
ENDBRANCH   1   7
BRANCH   4  21
ATOM     21  C16 <0> d   1      -5.532  -5.742  -3.912  0.00  0.00     0.311 C 
BRANCH  21  22
ATOM     22  C17 <0> d   1      -5.521  -6.612  -5.142  0.00  0.00    -0.027 A 
ATOM     23  C22 <0> d   1      -5.414  -7.984  -5.015  0.00  0.00     0.048 A 
ATOM     24  C21 <0> d   1      -5.409  -8.787  -6.144  0.00  0.00     0.105 A 
ATOM     25  C20 <0> d   1      -5.501  -8.207  -7.407  0.00  0.00     0.105 A 
ATOM     26  O3  <0> d   1      -5.321 -10.141  -6.291  0.00  0.00    -0.323 OA
ATOM     27  C19 <0> d   1      -5.602  -6.830  -7.527  0.00  0.00     0.040 A 
ATOM     28  O4  <0> d   1      -5.470  -9.197  -8.345  0.00  0.00    -0.323 OA
ATOM     29  C18 <0> d   1      -5.612  -6.036  -6.395  0.00  0.00     0.012 A 
ATOM     30  C23 <0> d   1      -5.770 -10.412  -7.633  0.00  0.00     0.352 C 
ENDBRANCH  21  22
ENDBRANCH   4  21
TORSDOF 4
