REMARK  7 active torsions:
REMARK  status: ('A' for Active; 'I' for Inactive)
REMARK    1  A    between atoms: O1_2  and  C2_3 
REMARK    2  A    between atoms: C7_8  and  C8_9 
REMARK    3  A    between atoms: C8_9  and  N1_10 
REMARK    4  A    between atoms: C17_20  and  C18_21 
REMARK    5  A    between atoms: C20_23  and  O5_31 
REMARK    6  A    between atoms: C21_24  and  O4_29 
REMARK    7  A    between atoms: C22_25  and  O3_27 
ROOT
ATOM      1  N1  <0> d   1       0.741  -1.972  -0.437  0.00  0.00    -0.042 N 
ATOM      2  C9  <0> d   1       1.580  -1.116   0.414  0.00  0.00     0.282 C 
ATOM      3  C10 <0> d   1       1.634  -1.687   1.808  0.00  0.00     0.036 A 
ATOM      4  C11 <0> d   1       0.701  -2.618   2.231  0.00  0.00     0.081 A 
ATOM      5  C12 <0> d   1       0.757  -3.134   3.525  0.00  0.00     0.038 A 
ATOM      6  C13 <0> d   1       1.732  -2.726   4.389  0.00  0.00     0.021 A 
ATOM      7  C14 <0> d   1       2.679  -1.789   3.975  0.00  0.00     0.051 A 
ATOM      8  C15 <0> d   1       2.635  -1.262   2.675  0.00  0.00     0.101 A 
ATOM      9  O2  <0> d   1       3.645  -0.381   2.506  0.00  0.00    -0.305 OA
ATOM     10  C16 <0> d   1       4.399  -0.260   3.624  0.00  0.00     0.127 A 
ATOM     11  C17 <0> d   1       5.484   0.543   3.777  0.00  0.00     0.053 C 
ATOM     12  C27 <0> d   1       3.831  -1.155   4.642  0.00  0.00     0.218 A 
ATOM     13  O6  <0> d   1       4.224  -1.333   5.782  0.00  0.00    -0.284 OA
ATOM     14  O7  <0> d   1      -0.281  -3.046   1.395  0.00  0.00    -0.323 OA
ATOM     15  C28 <0> d   1      -0.539  -2.253   0.233  0.00  0.00     0.410 C 
ATOM     16  H28 <0> d   1       1.268  -2.923  -0.601  0.00  0.00     0.283 HD
ENDROOT
BRANCH  11  17
ATOM     17  C18 <0> d   1       6.139   1.124   2.599  0.00  0.00    -0.028 A 
ATOM     18  C23 <0> d   1       7.160   2.070   2.759  0.00  0.00     0.051 A 
ATOM     19  C22 <0> d   1       7.774   2.614   1.647  0.00  0.00     0.105 A 
ATOM     20  C21 <0> d   1       7.379   2.224   0.370  0.00  0.00     0.135 A 
ATOM     21  C20 <0> d   1       6.364   1.284   0.207  0.00  0.00     0.105 A 
ATOM     22  C19 <0> d   1       5.748   0.731   1.313  0.00  0.00     0.051 A 
BRANCH  19  23
ATOM     23  O3  <0> d   1       8.766   3.532   1.801  0.00  0.00    -0.353 OA
ATOM     24  C24 <0> d   1       9.121   3.885   3.139  0.00  0.00     0.210 C 
ENDBRANCH  19  23
BRANCH  20  25
ATOM     25  O4  <0> d   1       7.985   2.763  -0.721  0.00  0.00    -0.351 OA
ATOM     26  C25 <0> d   1       9.138   2.084  -1.223  0.00  0.00     0.210 C 
ENDBRANCH  20  25
BRANCH  21  27
ATOM     27  O5  <0> d   1       5.981   0.907  -1.043  0.00  0.00    -0.353 OA
ATOM     28  C26 <0> d   1       4.993  -0.121  -1.136  0.00  0.00     0.210 C 
ENDBRANCH  21  27
ENDBRANCH  11  17
BRANCH   1  29
ATOM     29  C8  <0> d   1       0.522  -1.355  -1.752  0.00  0.00     0.279 C 
BRANCH  29  30
ATOM     30  C7  <0> d   1      -0.193  -0.040  -1.577  0.00  0.00     0.001 A 
ATOM     31  C2  <0> d   1       0.532   1.117  -1.333  0.00  0.00     0.076 A 
ATOM     32  C3  <0> d   1      -0.129   2.327  -1.173  0.00  0.00     0.037 A 
ATOM     33  C4  <0> d   1      -1.507   2.376  -1.257  0.00  0.00     0.003 A 
ATOM     34  C5  <0> d   1      -2.227   1.220  -1.500  0.00  0.00     0.001 A 
ATOM     35  C6  <0> d   1      -1.570   0.015  -1.665  0.00  0.00     0.012 A 
BRANCH  31  36
ATOM     36  O1  <0> d   1       1.888   1.067  -1.251  0.00  0.00    -0.355 OA
ATOM     37  C1  <0> d   1       2.574   2.308  -1.071  0.00  0.00     0.210 C 
ENDBRANCH  31  36
ENDBRANCH  29  30
ENDBRANCH   1  29
TORSDOF 7
