REMARK  6 active torsions:
REMARK  status: ('A' for Active; 'I' for Inactive)
REMARK    1  A    between atoms: C4_4  and  C7_8 
REMARK    2  A    between atoms: C14_16  and  C16_19 
REMARK    3  A    between atoms: C16_19  and  N1_20 
REMARK    4  A    between atoms: N2_23  and  C21_26 
REMARK    5  A    between atoms: C21_26  and  C22_27 
REMARK    6  A    between atoms: C22_27  and  O3_28 
ROOT
ATOM      1  C7  <0> d   1       0.041  -5.461  -3.220  0.00  0.00     0.056 C 
ATOM      2  C8  <0> d   1      -0.014  -4.390  -2.388  0.00  0.00     0.128 A 
ATOM      3  C9  <0> d   1      -0.072  -4.433  -0.919  0.00  0.00     0.218 A 
ATOM      4  O1  <0> d   1      -0.080  -5.418  -0.201  0.00  0.00    -0.284 OA
ATOM      5  C10 <0> d   1      -0.116  -3.017  -0.509  0.00  0.00     0.051 A 
ATOM      6  C11 <0> d   1      -0.179  -2.385   0.733  0.00  0.00     0.021 A 
ATOM      7  C12 <0> d   1      -0.209  -1.020   0.801  0.00  0.00     0.041 A 
ATOM      8  C13 <0> d   1      -0.178  -0.261  -0.365  0.00  0.00     0.118 A 
ATOM      9  C14 <0> d   1      -0.121  -0.876  -1.605  0.00  0.00     0.041 A 
ATOM     10  C15 <0> d   1      -0.084  -2.262  -1.692  0.00  0.00     0.101 A 
ATOM     11  O2  <0> d   1      -0.025  -3.088  -2.759  0.00  0.00    -0.305 OA
ATOM     12  O4  <0> d   1      -0.209   1.094  -0.287  0.00  0.00    -0.191 OA
ENDROOT
BRANCH   9  13
ATOM     13  C16 <0> d   1      -0.095  -0.041  -2.860  0.00  0.00     0.317 C 
BRANCH  13  14
ATOM     14  N1  <0> d   1       1.298   0.259  -3.219  0.00  0.00     0.096 N 
ATOM     15  C20 <0> d   1       1.378   0.865  -4.555  0.00  0.00     0.303 C 
ATOM     16  C19 <0> d   1       2.847   1.089  -4.923  0.00  0.00     0.302 C 
ATOM     17  N2  <0> d   1       3.475   1.956  -3.917  0.00  0.00     0.093 N 
ATOM     18  C18 <0> d   1       3.395   1.350  -2.580  0.00  0.00     0.302 C 
ATOM     19  C17 <0> d   1       1.926   1.127  -2.212  0.00  0.00     0.303 C 
BRANCH  17  20
ATOM     20  C21 <0> d   1       4.867   2.256  -4.276  0.00  0.00     0.298 C 
BRANCH  20  21
ATOM     21  C22 <0> d   1       5.744   1.037  -3.982  0.00  0.00     0.194 C 
BRANCH  21  22
ATOM     22  O3  <0> d   1       5.378  -0.034  -4.855  0.00  0.00    -0.399 OA
ATOM     23  H21 <0> d   1       5.903  -0.999  -4.792  0.00  0.00     0.209 HD
ENDBRANCH  21  22
ENDBRANCH  20  21
ENDBRANCH  17  20
ENDBRANCH  13  14
ENDBRANCH   9  13
BRANCH   1  24
ATOM     24  C4  <0> d   1       0.095  -5.259  -4.673  0.00  0.00     0.010 A 
ATOM     25  C3  <0> d   1       1.068  -5.914  -5.440  0.00  0.00     0.046 A 
ATOM     26  C2  <0> d   1       1.110  -5.719  -6.805  0.00  0.00     0.025 A 
ATOM     27 Cl2  <0> d   1       2.216  -6.968  -4.675  0.00  0.00    -0.083 Cl
ATOM     28  C1  <0> d   1       0.196  -4.880  -7.418  0.00  0.00     0.003 A 
ATOM     29  C6  <0> d   1      -0.768  -4.229  -6.668  0.00  0.00     0.025 A 
ATOM     30  C5  <0> d   1      -0.829  -4.415  -5.303  0.00  0.00     0.046 A 
ATOM     31 Cl1  <0> d   1      -2.044  -3.603  -4.366  0.00  0.00    -0.083 Cl
ENDBRANCH   1  24
TORSDOF 6
