REMARK  5 active torsions:
REMARK  status: ('A' for Active; 'I' for Inactive)
REMARK    1  A    between atoms: C4_4  and  C7_7 
REMARK    2  A    between atoms: N1_19  and  C18_22 
REMARK    3  A    between atoms: C18_22  and  C19_23 
REMARK    4  A    between atoms: C19_23  and  C20_24 
REMARK    5  A    between atoms: C20_24  and  N2_25 
ROOT
ATOM      1  C7  <0> d   1       3.698  -0.688  -0.038  0.00  0.00     0.048 C 
ATOM      2  C8  <0> d   1       4.556  -0.608   1.012  0.00  0.00     0.159 C 
ATOM      3  O1  <0> d   1       5.724  -1.252   1.042  0.00  0.00    -0.320 OA
ATOM      4  C9  <0> d   1       6.274  -1.776  -0.070  0.00  0.00     0.100 A 
ATOM      5  C10 <0> d   1       5.502  -1.943  -1.233  0.00  0.00     0.050 A 
ATOM      6  C11 <0> d   1       4.089  -1.518  -1.194  0.00  0.00     0.197 C 
ATOM      7  O2  <0> d   1       3.294  -1.829  -2.065  0.00  0.00    -0.286 OA
ATOM      8  C12 <0> d   1       6.066  -2.496  -2.382  0.00  0.00     0.021 A 
ATOM      9  C13 <0> d   1       7.379  -2.870  -2.377  0.00  0.00     0.038 A 
ATOM     10  C14 <0> d   1       8.159  -2.703  -1.232  0.00  0.00     0.082 A 
ATOM     11  C15 <0> d   1       7.611  -2.157  -0.085  0.00  0.00     0.038 A 
ATOM     12  C16 <0> d   1       8.446  -1.964   1.155  0.00  0.00     0.319 C 
ATOM     13  N1  <0> d   1       9.661  -2.786   1.064  0.00  0.00     0.116 N 
ATOM     14  C17 <0> d   1      10.317  -2.579  -0.237  0.00  0.00     0.447 C 
ATOM     15  O3  <0> d   1       9.462  -3.087  -1.264  0.00  0.00    -0.321 OA
ENDROOT
BRANCH  13  16
ATOM     16  C18 <0> d   1      10.581  -2.490   2.171  0.00  0.00     0.277 C 
BRANCH  16  17
ATOM     17  C19 <0> d   1      11.707  -3.526   2.189  0.00  0.00     0.058 C 
BRANCH  17  18
ATOM     18  C20 <0> d   1      12.665  -3.217   3.341  0.00  0.00     0.236 C 
BRANCH  18  19
ATOM     19  N2  <0> d   1      13.746  -4.211   3.359  0.00  0.00    -0.067 N 
ATOM     20  C24 <0> d   1      14.730  -3.847   4.388  0.00  0.00     0.261 C 
ATOM     21  C23 <0> d   1      15.855  -4.885   4.404  0.00  0.00     0.195 C 
ATOM     22  O4  <0> d   1      15.299  -6.180   4.644  0.00  0.00    -0.388 OA
ATOM     23  C22 <0> d   1      14.317  -6.570   3.681  0.00  0.00     0.195 C 
ATOM     24  C21 <0> d   1      13.188  -5.536   3.663  0.00  0.00     0.261 C 
ATOM     25  H27 <0> d   1      14.197  -4.235   2.456  0.00  0.00     0.280 HD
ENDBRANCH  18  19
ENDBRANCH  17  18
ENDBRANCH  16  17
ENDBRANCH  13  16
BRANCH   1  26
ATOM     26  C4  <0> d   1       2.402   0.033  -0.021  0.00  0.00    -0.020 A 
ATOM     27  C3  <0> d   1       2.377   1.426  -0.013  0.00  0.00     0.012 A 
ATOM     28  C2  <0> d   1       1.169   2.092   0.002  0.00  0.00     0.001 A 
ATOM     29  C1  <0> d   1      -0.017   1.379   0.010  0.00  0.00     0.000 A 
ATOM     30  C6  <0> d   1       0.002  -0.004   0.002  0.00  0.00     0.001 A 
ATOM     31  C5  <0> d   1       1.205  -0.680  -0.013  0.00  0.00     0.012 A 
ENDBRANCH   1  26
TORSDOF 5
