REMARK  6 active torsions:
REMARK  status: ('A' for Active; 'I' for Inactive)
REMARK    1  A    between atoms: C4_4  and  C7_7 
REMARK    2  A    between atoms: C7_7  and  C8_8 
REMARK    3  A    between atoms: C12_12  and  O2_30 
REMARK    4  A    between atoms: C13_13  and  C15_17 
REMARK    5  A    between atoms: C15_17  and  N2_18 
REMARK    6  A    between atoms: N3_21  and  C20_24 
ROOT
ATOM      1  C8  <0> d   1       4.135  -0.965   1.377  0.00  0.00     0.079 A 
ATOM      2  C9  <0> d   1       4.959  -0.062   2.185  0.00  0.00     0.028 A 
ATOM      3  C10 <0> d   1       5.531   1.192   1.951  0.00  0.00     0.019 A 
ATOM      4  C11 <0> d   1       6.268   1.796   2.928  0.00  0.00     0.038 A 
ATOM      5  C12 <0> d   1       6.455   1.171   4.160  0.00  0.00     0.076 A 
ATOM      6  C13 <0> d   1       5.897  -0.070   4.409  0.00  0.00     0.038 A 
ATOM      7  C14 <0> d   1       5.144  -0.697   3.425  0.00  0.00     0.124 A 
ATOM      8  O1  <0> d   1       4.490  -1.875   3.369  0.00  0.00    -0.212 OA
ATOM      9  N1  <0> d   1       3.877  -2.009   2.103  0.00  0.00    -0.131 NA
ENDROOT
BRANCH   6  10
ATOM     10  C15 <0> d   1       6.104  -0.738   5.744  0.00  0.00     0.279 C 
BRANCH  10  11
ATOM     11  N2  <0> d   1       5.028  -0.343   6.662  0.00  0.00    -0.064 N 
ATOM     12  C19 <0> d   1       5.164  -1.087   7.921  0.00  0.00     0.255 C 
ATOM     13  C18 <0> d   1       3.978  -0.762   8.836  0.00  0.00     0.152 C 
ATOM     14  N3  <0> d   1       3.901   0.699   8.998  0.00  0.00    -0.364 N 
ATOM     15  C17 <0> d   1       3.925   1.533   7.787  0.00  0.00     0.152 C 
ATOM     16  C16 <0> d   1       5.113   1.099   6.921  0.00  0.00     0.255 C 
ATOM     17  H26 <0> d   1       4.135  -0.555   6.243  0.00  0.00     0.280 HD
BRANCH  14  18
ATOM     18  C20 <0> d   1       3.808   1.273  10.260  0.00  0.00     0.102 A 
ATOM     19  N4  <0> d   1       3.668   0.499  11.325  0.00  0.00    -0.352 N 
ATOM     20  C24 <0> d   1       3.582   1.004  12.541  0.00  0.00     0.089 A 
ATOM     21  H25 <0> d   1       3.633  -0.463  11.209  0.00  0.00     0.166 HD
ATOM     22  C23 <0> d   1       3.623   2.369  12.745  0.00  0.00     0.017 A 
ATOM     23  C22 <0> d   1       3.763   3.216  11.654  0.00  0.00     0.005 A 
ATOM     24  C21 <0> d   1       3.857   2.658  10.392  0.00  0.00     0.048 A 
ENDBRANCH  14  18
ENDBRANCH  10  11
ENDBRANCH   6  10
BRANCH   5  25
ATOM     25  O2  <0> d   1       7.191   1.785   5.122  0.00  0.00    -0.360 OA
ATOM     26  H24 <0> d   1       6.674   2.354   5.710  0.00  0.00     0.217 HD
ENDBRANCH   5  25
BRANCH   1  27
ATOM     27  C7  <0> d   1       3.668  -0.721  -0.034  0.00  0.00     0.101 C 
BRANCH  27  28
ATOM     28  C4  <0> d   1       2.341  -0.007  -0.008  0.00  0.00    -0.052 A 
ATOM     29  C3  <0> d   1       2.300   1.375  -0.002  0.00  0.00     0.007 A 
ATOM     30  C2  <0> d   1       1.083   2.030   0.021  0.00  0.00     0.001 A 
ATOM     31  C1  <0> d   1      -0.093   1.304   0.038  0.00  0.00     0.000 A 
ATOM     32  C6  <0> d   1      -0.052  -0.078   0.032  0.00  0.00     0.001 A 
ATOM     33  C5  <0> d   1       1.165  -0.733   0.010  0.00  0.00     0.007 A 
ENDBRANCH  27  28
ENDBRANCH   1  27
TORSDOF 6
