REMARK  9 active torsions:
REMARK  status: ('A' for Active; 'I' for Inactive)
REMARK    1  A    between atoms: O1_2  and  C2_3 
REMARK    2  A    between atoms: C5_6  and  C8_9 
REMARK    3  A    between atoms: C10_14  and  C11_15 
REMARK    4  A    between atoms: C14_18  and  O3_22 
REMARK    5  A    between atoms: C16_20  and  O2_21 
REMARK    6  A    between atoms: O3_22  and  C17_23 
REMARK    7  A    between atoms: C17_23  and  C18_24 
REMARK    8  A    between atoms: C18_24  and  N3_25 
REMARK    9  A    between atoms: N4_28  and  C23_31 
ROOT
ATOM      1  C11 <0> d   1       3.234  -4.388  -2.784  0.00  0.00     0.026 A 
ATOM      2  C12 <0> d   1       4.519  -4.016  -2.384  0.00  0.00     0.019 A 
ATOM      3  C13 <0> d   1       5.064  -4.551  -1.237  0.00  0.00     0.038 A 
ATOM      4  C14 <0> d   1       4.338  -5.460  -0.476  0.00  0.00     0.071 A 
ATOM      5  C15 <0> d   1       3.061  -5.835  -0.866  0.00  0.00     0.074 A 
ATOM      6  C16 <0> d   1       2.501  -5.300  -2.013  0.00  0.00     0.081 A 
ENDROOT
BRANCH   4   7
ATOM      7  O3  <0> d   1       4.882  -5.983   0.654  0.00  0.00    -0.349 OA
BRANCH   7   8
ATOM      8  C17 <0> d   1       6.201  -5.554   0.998  0.00  0.00     0.203 C 
BRANCH   8   9
ATOM      9  C18 <0> d   1       6.641  -6.245   2.290  0.00  0.00     0.261 C 
BRANCH   9  10
ATOM     10  N3  <0> d   1       6.728  -7.694   2.066  0.00  0.00    -0.066 N 
ATOM     11  C22 <0> d   1       7.812  -7.977   1.117  0.00  0.00     0.254 C 
ATOM     12  C21 <0> d   1       7.830  -9.475   0.794  0.00  0.00     0.150 C 
ATOM     13  N4  <0> d   1       7.918 -10.223   2.058  0.00  0.00    -0.378 N 
ATOM     14  C20 <0> d   1       6.968  -9.888   3.130  0.00  0.00     0.150 C 
ATOM     15  C19 <0> d   1       6.991  -8.370   3.342  0.00  0.00     0.254 C 
ATOM     16  H30 <0> d   1       5.855  -8.027   1.685  0.00  0.00     0.280 HD
BRANCH  13  17
ATOM     17  C23 <0> d   1       8.877 -11.225   2.235  0.00  0.00     0.030 A 
ATOM     18  C28 <0> d   1       9.839 -11.447   1.259  0.00  0.00     0.032 A 
ATOM     19  C27 <0> d   1      10.789 -12.434   1.438  0.00  0.00     0.044 A 
ATOM     20  C26 <0> d   1      10.775 -13.209   2.585  0.00  0.00     0.116 A 
ATOM     21  C25 <0> d   1       9.813 -12.993   3.557  0.00  0.00     0.044 A 
ATOM     22  F1  <0> d   1      11.701 -14.177   2.756  0.00  0.00    -0.206 F 
ATOM     23  C24 <0> d   1       8.865 -12.004   3.385  0.00  0.00     0.032 A 
ENDBRANCH  13  17
ENDBRANCH   9  10
ENDBRANCH   8   9
ENDBRANCH   7   8
ENDBRANCH   4   7
BRANCH   6  24
ATOM     24  O2  <0> d   1       1.248  -5.662  -2.393  0.00  0.00    -0.360 OA
ATOM     25  H13 <0> d   1       1.221  -6.434  -2.974  0.00  0.00     0.217 HD
ENDBRANCH   6  24
BRANCH   1  26
ATOM     26  C10 <0> d   1       2.646  -3.817  -4.013  0.00  0.00     0.075 A 
ATOM     27  C8  <0> d   1       2.341  -4.505  -5.180  0.00  0.00     0.022 A 
ATOM     28  C9  <0> d   1       1.798  -3.574  -6.083  0.00  0.00     0.153 A 
ATOM     29  N1  <0> d   1       1.778  -2.401  -5.510  0.00  0.00    -0.186 NA
ATOM     30  N2  <0> d   1       2.303  -2.513  -4.217  0.00  0.00    -0.277 N 
ATOM     31  H1  <0> d   1       2.402  -1.791  -3.578  0.00  0.00     0.189 HD
BRANCH  27  32
ATOM     32  C5  <0> d   1       2.545  -5.953  -5.425  0.00  0.00    -0.022 A 
ATOM     33  C4  <0> d   1       1.474  -6.751  -5.824  0.00  0.00     0.015 A 
ATOM     34  C3  <0> d   1       1.667  -8.098  -6.052  0.00  0.00     0.037 A 
ATOM     35  C2  <0> d   1       2.926  -8.658  -5.886  0.00  0.00     0.068 A 
ATOM     36  C7  <0> d   1       3.993  -7.867  -5.484  0.00  0.00     0.037 A 
ATOM     37  C6  <0> d   1       3.808  -6.519  -5.259  0.00  0.00     0.015 A 
BRANCH  35  38
ATOM     38  O1  <0> d   1       3.113  -9.985  -6.111  0.00  0.00    -0.356 OA
ATOM     39  C1  <0> d   1       1.972 -10.740  -6.523  0.00  0.00     0.210 C 
ENDBRANCH  35  38
ENDBRANCH  27  32
ENDBRANCH   1  26
TORSDOF 9
