REMARK  12 active torsions:
REMARK  status: ('A' for Active; 'I' for Inactive)
REMARK    1  A    between atoms: C2_2  and  O1_3 
REMARK    2  A    between atoms: O1_3  and  C3_4 
REMARK    3  A    between atoms: C3_4  and  C4_6 
REMARK    4  A    between atoms: C7_9  and  O3_12 
REMARK    5  A    between atoms: O3_12  and  C10_13 
REMARK    6  A    between atoms: C15_19  and  O7_38 
REMARK    7  A    between atoms: C16_20  and  C20_28 
REMARK    8  A    between atoms: C18_23  and  C19_24 
REMARK    9  A    between atoms: C20_28  and  N1_29 
REMARK   10  A    between atoms: N2_32  and  C25_35 
REMARK   11  A    between atoms: C25_35  and  C26_36 
REMARK   12  A    between atoms: C26_36  and  O6_37 
ROOT
ATOM      1  C10 <0> d   1      -6.658  -5.411   0.033  0.00  0.00     0.165 A 
ATOM      2  C11 <0> d   1      -7.896  -6.115   0.003  0.00  0.00     0.221 A 
ATOM      3  O4  <0> d   1      -8.958  -5.526  -0.108  0.00  0.00    -0.284 OA
ATOM      4  C12 <0> d   1      -7.839  -7.583   0.110  0.00  0.00     0.052 A 
ATOM      5  C13 <0> d   1      -8.999  -8.359   0.089  0.00  0.00     0.021 A 
ATOM      6  C14 <0> d   1      -8.907  -9.717   0.190  0.00  0.00     0.038 A 
ATOM      7  C15 <0> d   1      -7.662 -10.332   0.315  0.00  0.00     0.076 A 
ATOM      8  C16 <0> d   1      -6.502  -9.576   0.337  0.00  0.00     0.038 A 
ATOM      9  C17 <0> d   1      -6.579  -8.194   0.234  0.00  0.00     0.101 A 
ATOM     10  O5  <0> d   1      -5.465  -7.435   0.253  0.00  0.00    -0.301 OA
ATOM     11  C18 <0> d   1      -5.505  -6.100   0.150  0.00  0.00     0.197 A 
ENDROOT
BRANCH   1  12
ATOM     12  O3  <0> d   1      -6.639  -4.054  -0.062  0.00  0.00    -0.304 OA
BRANCH  12  13
ATOM     13  C7  <0> d   1      -7.177  -3.337   0.957  0.00  0.00     0.076 A 
ATOM     14  C6  <0> d   1      -7.285  -1.954   0.850  0.00  0.00     0.038 A 
ATOM     15  C5  <0> d   1      -7.831  -1.223   1.881  0.00  0.00     0.020 A 
ATOM     16  C4  <0> d   1      -8.277  -1.873   3.036  0.00  0.00     0.039 A 
ATOM     17  C9  <0> d   1      -8.161  -3.262   3.142  0.00  0.00     0.020 A 
ATOM     18  C8  <0> d   1      -7.619  -3.986   2.104  0.00  0.00     0.038 A 
BRANCH  16  19
ATOM     19  C3  <0> d   1      -8.863  -1.093   4.142  0.00  0.00     0.293 C 
ATOM     20  O2  <0> d   1      -9.245  -1.659   5.147  0.00  0.00    -0.259 OA
BRANCH  19  21
ATOM     21  O1  <0> d   1      -8.974   0.245   4.038  0.00  0.00    -0.318 OA
BRANCH  21  22
ATOM     22  C2  <0> d   1      -9.551   0.937   5.148  0.00  0.00     0.174 C 
ATOM     23  C1  <0> d   1      -9.594   2.436   4.848  0.00  0.00     0.034 C 
ENDBRANCH  21  22
ENDBRANCH  19  21
ENDBRANCH  16  19
ENDBRANCH  12  13
ENDBRANCH   1  12
BRANCH  11  24
ATOM     24  C19 <0> d   1      -4.207  -5.335   0.174  0.00  0.00     0.442 C 
ATOM     25  F1  <0> d   1      -4.474  -3.963   0.237  0.00  0.00    -0.164 F 
ATOM     26  F2  <0> d   1      -3.461  -5.716   1.295  0.00  0.00    -0.164 F 
ATOM     27  F3  <0> d   1      -3.479  -5.615  -0.987  0.00  0.00    -0.164 F 
ENDBRANCH  11  24
BRANCH   8  28
ATOM     28  C20 <0> d   1      -5.162 -10.251   0.473  0.00  0.00     0.317 C 
BRANCH  28  29
ATOM     29  N1  <0> d   1      -4.636 -10.569  -0.861  0.00  0.00     0.096 N 
ATOM     30  C24 <0> d   1      -3.236 -11.009  -0.784  0.00  0.00     0.300 C 
ATOM     31  C23 <0> d   1      -2.709 -11.271  -2.197  0.00  0.00     0.265 C 
ATOM     32  N2  <0> d   1      -3.530 -12.304  -2.842  0.00  0.00    -0.066 N 
ATOM     33  C22 <0> d   1      -4.920 -11.840  -2.934  0.00  0.00     0.265 C 
ATOM     34  H28 <0> d   1      -3.494 -13.152  -2.296  0.00  0.00     0.280 HD
ATOM     35  C21 <0> d   1      -5.466 -11.582  -1.528  0.00  0.00     0.300 C 
BRANCH  32  36
ATOM     36  C25 <0> d   1      -3.013 -12.569  -4.191  0.00  0.00     0.260 C 
BRANCH  36  37
ATOM     37  C26 <0> d   1      -1.609 -13.170  -4.090  0.00  0.00     0.192 C 
BRANCH  37  38
ATOM     38  O6  <0> d   1      -1.683 -14.448  -3.456  0.00  0.00    -0.399 OA
ATOM     39  H26 <0> d   1      -0.828 -14.889  -3.359  0.00  0.00     0.209 HD
ENDBRANCH  37  38
ENDBRANCH  36  37
ENDBRANCH  32  36
ENDBRANCH  28  29
ENDBRANCH   8  28
BRANCH   7  40
ATOM     40  O7  <0> d   1      -7.586 -11.684   0.415  0.00  0.00    -0.360 OA
ATOM     41  H27 <0> d   1      -7.507 -12.137  -0.435  0.00  0.00     0.217 HD
ENDBRANCH   7  40
TORSDOF 12
