REMARK  3 active torsions:
REMARK  status: ('A' for Active; 'I' for Inactive)
REMARK    1  A    between atoms: C9_10  and  C10_11 
REMARK    2  A    between atoms: N1_19  and  C17_22 
REMARK    3  A    between atoms: C17_22  and  C18_23 
ROOT
ATOM      1  C1  <0> d   1      -0.815   6.595   6.247  0.00  0.00     0.054 C 
ATOM      2  C2  <0> d   1      -0.154   7.420   5.172  0.00  0.00     0.007 A 
ATOM      3  C3  <0> d   1      -0.128   6.959   3.863  0.00  0.00     0.087 A 
ATOM      4  C4  <0> d   1       0.478   7.714   2.864  0.00  0.00     0.005 A 
ATOM      5  C5  <0> d   1       1.056   8.917   3.166  0.00  0.00     0.030 A 
ATOM      6  C6  <0> d   1       1.037   9.391   4.476  0.00  0.00     0.052 A 
ATOM      7  C7  <0> d   1       0.427   8.638   5.494  0.00  0.00     0.099 A 
ATOM      8  O1  <0> d   1       0.542   9.309   6.660  0.00  0.00    -0.305 OA
ATOM      9  C8  <0> d   1       1.200  10.480   6.494  0.00  0.00     0.128 A 
ATOM     10  C9  <0> d   1       1.479  11.384   7.478  0.00  0.00     0.060 C 
ATOM     11  C14 <0> d   1       1.552  10.610   5.124  0.00  0.00     0.218 A 
ATOM     12  O2  <0> d   1       2.152  11.532   4.597  0.00  0.00    -0.284 OA
ATOM     13  C15 <0> d   1       0.509   7.222   1.438  0.00  0.00     0.317 C 
ATOM     14  N1  <0> d   1       0.225   5.781   1.409  0.00  0.00     0.121 N 
ATOM     15  C16 <0> d   1      -0.979   5.484   2.202  0.00  0.00     0.448 C 
ATOM     16  O3  <0> d   1      -0.700   5.760   3.576  0.00  0.00    -0.320 OA
ENDROOT
BRANCH  14  17
ATOM     17  C17 <0> d   1       0.077   5.302   0.028  0.00  0.00     0.334 C 
BRANCH  17  18
ATOM     18  C18 <0> d   1       0.033   3.795   0.021  0.00  0.00     0.062 A 
ATOM     19  N2  <0> d   1       1.159   3.110   0.007  0.00  0.00    -0.264 NA
ATOM     20  C22 <0> d   1       1.169   1.792   0.001  0.00  0.00     0.117 A 
ATOM     21  C21 <0> d   1      -0.013   1.076   0.008  0.00  0.00     0.019 A 
ATOM     22  C20 <0> d   1      -1.218   1.762   0.017  0.00  0.00     0.003 A 
ATOM     23  C19 <0> d   1      -1.188   3.147   0.029  0.00  0.00     0.029 A 
ENDBRANCH  17  18
ENDBRANCH  14  17
BRANCH  10  24
ATOM     24  C10 <0> d   1       1.069  11.131   8.806  0.00  0.00     0.007 A 
ATOM     25  S1  <0> d   1       0.179   9.731   9.461  0.00  0.00    -0.102 SA
ATOM     26  C13 <0> d   1       0.107  10.222  11.122  0.00  0.00     0.050 A 
ATOM     27  C12 <0> d   1       0.746  11.422  11.121  0.00  0.00     0.008 A 
ATOM     28  C11 <0> d   1       1.250  11.912   9.944  0.00  0.00     0.019 A 
ENDBRANCH  10  24
TORSDOF 3
