REMARK  6 active torsions:
REMARK  status: ('A' for Active; 'I' for Inactive)
REMARK    1  A    between atoms: C2_2  and  O1_3 
REMARK    2  A    between atoms: O1_3  and  C3_4 
REMARK    3  A    between atoms: C5_6  and  O2_7 
REMARK    4  A    between atoms: C6_8  and  C7_9 
REMARK    5  A    between atoms: C8_10  and  C12_17 
REMARK    6  A    between atoms: C10_13  and  N3_15 
ROOT
ATOM      1  C7  <0> d   1       0.958  -6.033  -1.897  0.00  0.00     0.102 A 
ATOM      2  C8  <0> d   1       0.650  -6.899  -0.828  0.00  0.00     0.029 A 
ATOM      3  C9  <0> d   1       0.922  -8.258  -0.981  0.00  0.00     0.063 A 
ATOM      4  N1  <0> d   1       1.454  -8.684  -2.114  0.00  0.00    -0.067 NA
ATOM      5  C10 <0> d   1       1.732  -7.843  -3.100  0.00  0.00     0.721 A 
ATOM      6  N2  <0> d   1       1.488  -6.546  -3.005  0.00  0.00    -0.062 NA
ATOM      7  C11 <0> d   1       0.613  -9.228   0.131  0.00  0.00     0.072 C 
ENDROOT
BRANCH   1   8
ATOM      8  C6  <0> d   1       0.692  -4.582  -1.791  0.00  0.00     0.028 A 
ATOM      9  C5  <0> d   1       1.698  -3.659  -2.102  0.00  0.00     0.081 A 
ATOM     10  C4  <0> d   1       1.442  -2.302  -2.001  0.00  0.00     0.074 A 
ATOM     11  C3  <0> d   1       0.192  -1.861  -1.593  0.00  0.00     0.071 A 
ATOM     12  C19 <0> d   1      -0.806  -2.776  -1.279  0.00  0.00     0.038 A 
ATOM     13  C18 <0> d   1      -0.562  -4.129  -1.382  0.00  0.00     0.019 A 
BRANCH   9  14
ATOM     14  O2  <0> d   1       2.921  -4.092  -2.500  0.00  0.00    -0.360 OA
ATOM     15  H18 <0> d   1       3.546  -4.230  -1.775  0.00  0.00     0.217 HD
ENDBRANCH   9  14
BRANCH  11  16
ATOM     16  O1  <0> d   1      -0.057  -0.529  -1.495  0.00  0.00    -0.351 OA
BRANCH  16  17
ATOM     17  C2  <0> d   1      -1.364  -0.143  -1.064  0.00  0.00     0.171 C 
ATOM     18  C1  <0> d   1      -1.454   1.383  -1.015  0.00  0.00     0.034 C 
ENDBRANCH  16  17
ENDBRANCH  11  16
ENDBRANCH   1   8
BRANCH   2  19
ATOM     19  C12 <0> d   1       0.054  -6.378   0.426  0.00  0.00    -0.021 A 
ATOM     20  C17 <0> d   1      -1.253  -6.717   0.772  0.00  0.00     0.014 A 
ATOM     21  C16 <0> d   1      -1.801  -6.235   1.943  0.00  0.00     0.024 A 
ATOM     22  C15 <0> d   1      -1.059  -5.406   2.767  0.00  0.00     0.034 A 
ATOM     23  C14 <0> d   1       0.237  -5.061   2.425  0.00  0.00     0.024 A 
ATOM     24 Cl1  <0> d   1      -1.757  -4.796   4.235  0.00  0.00    -0.084 Cl
ATOM     25  C13 <0> d   1       0.797  -5.543   1.259  0.00  0.00     0.014 A 
ENDBRANCH   2  19
BRANCH   5  26
ATOM     26  N3  <0> d   1       2.289  -8.338  -4.266  0.00  0.00    -0.231 N 
ATOM     27  H7  <0> d   1       2.470  -9.287  -4.353  0.00  0.00     0.174 HD
ATOM     28  H8  <0> d   1       2.498  -7.735  -4.997  0.00  0.00     0.174 HD
ENDBRANCH   5  26
TORSDOF 6
