REMARK  5 active torsions:
REMARK  status: ('A' for Active; 'I' for Inactive)
REMARK    1  A    between atoms: O1_2  and  C2_3 
REMARK    2  A    between atoms: C5_6  and  C9_11 
REMARK    3  A    between atoms: C7_8  and  O2_9 
REMARK    4  A    between atoms: C11_16  and  C12_17 
REMARK    5  A    between atoms: C15_20  and  O4_24 
ROOT
ATOM      1  C9  <0> d   1      -5.034  -2.516  -0.043  0.00  0.00     0.022 A 
ATOM      2  C10 <0> d   1      -5.435  -3.490  -0.907  0.00  0.00     0.124 A 
ATOM      3  N1  <0> d   1      -6.606  -3.986  -0.456  0.00  0.00    -0.288 N 
ATOM      4  H1  <0> d   1      -7.122  -4.693  -0.875  0.00  0.00     0.188 HD
ATOM      5  N2  <0> d   1      -6.949  -3.309   0.721  0.00  0.00    -0.174 NA
ATOM      6  C11 <0> d   1      -6.009  -2.427   0.982  0.00  0.00     0.102 A 
ENDROOT
BRANCH   1   7
ATOM      7  C5  <0> d   1      -3.798  -1.702  -0.151  0.00  0.00    -0.019 A 
ATOM      8  C4  <0> d   1      -3.877  -0.311  -0.165  0.00  0.00     0.015 A 
ATOM      9  C3  <0> d   1      -2.727   0.446  -0.265  0.00  0.00     0.040 A 
ATOM     10  C2  <0> d   1      -1.491  -0.176  -0.352  0.00  0.00     0.101 A 
ATOM     11  C7  <0> d   1      -1.406  -1.565  -0.344  0.00  0.00     0.102 A 
ATOM     12  C6  <0> d   1      -2.556  -2.328  -0.239  0.00  0.00     0.052 A 
BRANCH  10  13
ATOM     13  O1  <0> d   1      -0.360   0.573  -0.450  0.00  0.00    -0.353 OA
ATOM     14  C1  <0> d   1      -0.520   1.993  -0.451  0.00  0.00     0.210 C 
ENDBRANCH  10  13
BRANCH  11  15
ATOM     15  O2  <0> d   1      -0.193  -2.173  -0.435  0.00  0.00    -0.353 OA
ATOM     16  C8  <0> d   1      -0.180  -3.602  -0.422  0.00  0.00     0.210 C 
ENDBRANCH  11  15
ENDBRANCH   1   7
BRANCH   6  17
ATOM     17  C12 <0> d   1      -5.978  -1.501   2.139  0.00  0.00     0.032 A 
ATOM     18  C17 <0> d   1      -7.117  -0.766   2.481  0.00  0.00     0.122 A 
ATOM     19  C16 <0> d   1      -7.083   0.092   3.567  0.00  0.00     0.077 A 
ATOM     20  O3  <0> d   1      -8.256  -0.898   1.752  0.00  0.00    -0.191 OA
ATOM     21  C15 <0> d   1      -5.918   0.230   4.305  0.00  0.00     0.068 A 
ATOM     22  C14 <0> d   1      -4.784  -0.495   3.963  0.00  0.00     0.037 A 
ATOM     23  C13 <0> d   1      -4.811  -1.357   2.887  0.00  0.00     0.019 A 
BRANCH  21  24
ATOM     24  O4  <0> d   1      -5.885   1.078   5.367  0.00  0.00    -0.361 OA
ATOM     25  H15 <0> d   1      -5.616   1.979   5.143  0.00  0.00     0.217 HD
ENDBRANCH  21  24
ENDBRANCH   6  17
TORSDOF 5
