REMARK  8 active torsions:
REMARK  status: ('A' for Active; 'I' for Inactive)
REMARK    1  A    between atoms: N2_5  and  C6_8 
REMARK    2  A    between atoms: C6_8  and  C7_9 
REMARK    3  A    between atoms: C8_10  and  O5_37 
REMARK    4  A    between atoms: C9_11  and  C23_29 
REMARK    5  A    between atoms: C12_14  and  O1_15 
REMARK    6  A    between atoms: C14_18  and  C16_21 
REMARK    7  A    between atoms: C19_24  and  O4_27 
REMARK    8  A    between atoms: C23_29  and  N3_30 
ROOT
ATOM      1  C7  <0> d   1       0.030   7.005  -3.150  0.00  0.00     0.038 A 
ATOM      2  C8  <0> d   1      -0.152   5.627  -3.092  0.00  0.00     0.087 A 
ATOM      3  C9  <0> d   1      -1.263   5.086  -2.464  0.00  0.00     0.036 A 
ATOM      4  C10 <0> d   1      -2.211   5.919  -1.887  0.00  0.00     0.102 A 
ATOM      5  C11 <0> d   1      -2.024   7.312  -1.940  0.00  0.00     0.083 A 
ATOM      6  C12 <0> d   1      -0.899   7.852  -2.577  0.00  0.00     0.093 A 
ATOM      7  C13 <0> d   1      -3.038   8.178  -1.318  0.00  0.00     0.200 A 
ATOM      8  O2  <0> d   1      -2.937   9.393  -1.333  0.00  0.00    -0.286 OA
ATOM      9  C14 <0> d   1      -4.191   7.508  -0.690  0.00  0.00     0.048 A 
ATOM     10  C15 <0> d   1      -4.244   6.151  -0.707  0.00  0.00     0.159 A 
ATOM     11  O3  <0> d   1      -3.297   5.402  -1.279  0.00  0.00    -0.320 OA
ENDROOT
BRANCH   1  12
ATOM     12  C6  <0> d   1       1.245   7.574  -3.837  0.00  0.00     0.317 C 
BRANCH  12  13
ATOM     13  N2  <0> d   1       0.942   7.802  -5.256  0.00  0.00     0.096 N 
ATOM     14  C3  <0> d   1       2.012   8.572  -5.906  0.00  0.00     0.300 C 
ATOM     15  C2  <0> d   1       1.623   8.855  -7.359  0.00  0.00     0.264 C 
ATOM     16  N1  <0> d   1       1.393   7.584  -8.059  0.00  0.00    -0.072 N 
ATOM     17  C1  <0> d   1       1.091   7.812  -9.478  0.00  0.00     0.269 C 
ATOM     18  C5  <0> d   1       0.323   6.814  -7.409  0.00  0.00     0.264 C 
ATOM     19  H37 <0> d   1       2.319   6.993  -8.003  0.00  0.00     0.279 HD
ATOM     20  C4  <0> d   1       0.712   6.531  -5.957  0.00  0.00     0.300 C 
ENDBRANCH  12  13
ENDBRANCH   1  12
BRANCH   6  21
ATOM     21  O1  <0> d   1      -0.723   9.197  -2.631  0.00  0.00    -0.359 OA
ATOM     22  H14 <0> d   1      -1.466   9.867  -2.174  0.00  0.00     0.217 HD
ENDBRANCH   6  21
BRANCH   2  23
ATOM     23  O5  <0> d   1       0.766   4.803  -3.658  0.00  0.00    -0.359 OA
ATOM     24  H36 <0> d   1       0.627   3.713  -3.616  0.00  0.00     0.217 HD
ENDBRANCH   2  23
BRANCH   3  25
ATOM     25  C23 <0> d   1      -1.445   3.591  -2.413  0.00  0.00     0.279 C 
BRANCH  25  26
ATOM     26  N3  <0> d   1      -0.806   3.062  -1.200  0.00  0.00    -0.064 N 
ATOM     27  C27 <0> d   1      -1.495   3.536   0.008  0.00  0.00     0.265 C 
ATOM     28  C26 <0> d   1      -0.754   3.029   1.247  0.00  0.00     0.299 C 
ATOM     29  N4  <0> d   1      -0.701   1.560   1.216  0.00  0.00     0.087 N 
ATOM     30  C25 <0> d   1      -0.013   1.086   0.008  0.00  0.00     0.299 C 
ATOM     31  C28 <0> d   1      -0.062   1.031   2.429  0.00  0.00     0.310 C 
ATOM     32  C24 <0> d   1      -0.754   1.593  -1.231  0.00  0.00     0.265 C 
ATOM     33  H38 <0> d   1       0.227   3.438  -1.172  0.00  0.00     0.280 HD
ENDBRANCH  25  26
ENDBRANCH   3  25
BRANCH   9  34
ATOM     34  C16 <0> d   1      -5.266   8.299  -0.043  0.00  0.00    -0.020 A 
ATOM     35  C21 <0> d   1      -6.601   8.043  -0.349  0.00  0.00     0.015 A 
ATOM     36  C20 <0> d   1      -7.598   8.781   0.254  0.00  0.00     0.037 A 
ATOM     37  C19 <0> d   1      -7.273   9.776   1.166  0.00  0.00     0.068 A 
ATOM     38  C18 <0> d   1      -5.944  10.032   1.473  0.00  0.00     0.037 A 
ATOM     39  C17 <0> d   1      -4.942   9.295   0.877  0.00  0.00     0.015 A 
BRANCH  37  40
ATOM     40  O4  <0> d   1      -8.258  10.500   1.759  0.00  0.00    -0.356 OA
ATOM     41  C22 <0> d   1      -7.853  11.509   2.687  0.00  0.00     0.210 C 
ENDBRANCH  37  40
ENDBRANCH   9  34
TORSDOF 8
