REMARK  4 active torsions:
REMARK  status: ('A' for Active; 'I' for Inactive)
REMARK    1  A    between atoms: C2_2  and  N1_3 
REMARK    2  A    between atoms: N2_6  and  C7_9 
REMARK    3  A    between atoms: C7_9  and  C8_10 
REMARK    4  A    between atoms: C15_18  and  C16_19 
ROOT
ATOM      1  C8  <0> d   1      -4.392  -4.161  -0.806  0.00  0.00     0.039 A 
ATOM      2  C9  <0> d   1      -4.496  -4.912  -1.966  0.00  0.00     0.118 A 
ATOM      3  C10 <0> d   1      -4.811  -6.267  -1.906  0.00  0.00     0.041 A 
ATOM      4  C11 <0> d   1      -5.021  -6.870  -0.698  0.00  0.00     0.021 A 
ATOM      5  C12 <0> d   1      -4.920  -6.126   0.478  0.00  0.00     0.051 A 
ATOM      6  C13 <0> d   1      -4.597  -4.760   0.431  0.00  0.00     0.101 A 
ATOM      7  O1  <0> d   1      -4.550  -4.259   1.684  0.00  0.00    -0.305 OA
ATOM      8  C14 <0> d   1      -4.818  -5.205   2.615  0.00  0.00     0.127 A 
ATOM      9  C15 <0> d   1      -4.848  -5.021   3.958  0.00  0.00     0.053 C 
ATOM     10  C23 <0> d   1      -5.082  -6.466   1.903  0.00  0.00     0.218 A 
ATOM     11  O2  <0> d   1      -5.360  -7.550   2.385  0.00  0.00    -0.284 OA
ATOM     12  O3  <0> d   1      -4.289  -4.322  -3.170  0.00  0.00    -0.191 OA
ENDROOT
BRANCH   1  13
ATOM     13  C7  <0> d   1      -4.051  -2.695  -0.886  0.00  0.00     0.279 C 
BRANCH  13  14
ATOM     14  N2  <0> d   1      -2.592  -2.529  -0.838  0.00  0.00    -0.064 N 
ATOM     15  C4  <0> d   1      -2.254  -1.113  -1.036  0.00  0.00     0.265 C 
ATOM     16  C3  <0> d   1      -0.734  -0.943  -1.005  0.00  0.00     0.300 C 
ATOM     17  N1  <0> d   1      -0.217  -1.411   0.288  0.00  0.00     0.091 N 
ATOM     18  C6  <0> d   1      -0.569  -2.821   0.511  0.00  0.00     0.300 C 
ATOM     19  C5  <0> d   1      -2.091  -2.976   0.468  0.00  0.00     0.265 C 
ATOM     20  H26 <0> d   1      -2.167  -3.081  -1.568  0.00  0.00     0.280 HD
BRANCH  17  21
ATOM     21  C2  <0> d   1       1.236  -1.211   0.379  0.00  0.00     0.268 C 
ATOM     22  C1  <0> d   1       1.544   0.288   0.391  0.00  0.00     0.037 C 
ENDBRANCH  17  21
ENDBRANCH  13  14
ENDBRANCH   1  13
BRANCH   9  23
ATOM     23  C16 <0> d   1      -4.715  -3.668   4.518  0.00  0.00    -0.033 A 
ATOM     24  C21 <0> d   1      -4.581  -3.489   5.900  0.00  0.00     0.012 A 
ATOM     25  C20 <0> d   1      -4.449  -2.218   6.417  0.00  0.00     0.007 A 
ATOM     26  C19 <0> d   1      -4.462  -1.120   5.574  0.00  0.00    -0.062 A 
ATOM     27  C18 <0> d   1      -4.599  -1.288   4.207  0.00  0.00     0.007 A 
ATOM     28  C22 <0> d   1      -4.324   0.267   6.148  0.00  0.00     0.048 C 
ATOM     29  C17 <0> d   1      -4.725  -2.553   3.674  0.00  0.00     0.012 A 
ENDBRANCH   9  23
TORSDOF 4
