REMARK  5 active torsions:
REMARK  status: ('A' for Active; 'I' for Inactive)
REMARK    1  A    between atoms: C6_6  and  C11_13 
REMARK    2  A    between atoms: C11_13  and  N1_14 
REMARK    3  A    between atoms: N2_17  and  C16_20 
REMARK    4  A    between atoms: C16_20  and  C17_21 
REMARK    5  A    between atoms: C18_22  and  C19_23 
ROOT
ATOM      1  N1  <0> d   1      -0.618  -5.195  -1.897  0.00  0.00    -0.064 N 
ATOM      2  C12 <0> d   1      -1.205  -6.043  -0.851  0.00  0.00     0.265 C 
ATOM      3  C13 <0> d   1      -2.623  -6.448  -1.260  0.00  0.00     0.300 C 
ATOM      4  N2  <0> d   1      -2.573  -7.177  -2.535  0.00  0.00     0.095 N 
ATOM      5  C14 <0> d   1      -1.965  -6.349  -3.586  0.00  0.00     0.300 C 
ATOM      6  C15 <0> d   1      -0.552  -5.944  -3.158  0.00  0.00     0.265 C 
ATOM      7  H29 <0> d   1      -1.190  -4.373  -2.024  0.00  0.00     0.280 HD
ENDROOT
BRANCH   1   8
ATOM      8  C11 <0> d   1       0.736  -4.791  -1.496  0.00  0.00     0.274 C 
BRANCH   8   9
ATOM      9  C6  <0> d   1       0.654  -3.872  -0.305  0.00  0.00    -0.013 A 
ATOM     10  C5  <0> d   1       0.462  -2.429  -0.478  0.00  0.00     0.012 A 
ATOM     11  C4  <0> d   1       0.351  -1.864  -1.752  0.00  0.00    -0.048 A 
ATOM     12  C9  <0> d   1       0.391  -1.609   0.662  0.00  0.00     0.091 A 
ATOM     13  C3  <0> d   1       0.173  -0.515  -1.882  0.00  0.00     0.014 A 
ATOM     14  C25 <0> d   1       0.426  -2.739  -2.977  0.00  0.00     0.049 C 
ATOM     15  C2  <0> d   1       0.102   0.297  -0.760  0.00  0.00    -0.059 A 
ATOM     16  C1  <0> d   1      -0.094   1.782  -0.925  0.00  0.00     0.048 C 
ATOM     17  C10 <0> d   1       0.215  -0.240   0.506  0.00  0.00     0.045 A 
ATOM     18  O2  <0> d   1       0.500  -2.156   1.891  0.00  0.00    -0.275 OA
ATOM     19  C8  <0> d   1       0.676  -3.475   2.058  0.00  0.00     0.288 A 
ATOM     20  C7  <0> d   1       0.756  -4.357   0.958  0.00  0.00     0.092 A 
ATOM     21  O1  <0> d   1       0.768  -3.924   3.186  0.00  0.00    -0.260 OA
ENDBRANCH   8   9
ENDBRANCH   1   8
BRANCH   4  22
ATOM     22  C16 <0> d   1      -3.911  -7.634  -2.933  0.00  0.00     0.300 C 
BRANCH  22  23
ATOM     23  C17 <0> d   1      -3.793  -8.578  -4.102  0.00  0.00     0.004 C 
ATOM     24  C18 <0> d   1      -4.324  -9.790  -4.032  0.00  0.00     0.009 C 
BRANCH  24  25
ATOM     25  C19 <0> d   1      -4.208 -10.716  -5.178  0.00  0.00    -0.036 A 
ATOM     26  C24 <0> d   1      -4.766 -11.993  -5.107  0.00  0.00     0.011 A 
ATOM     27  C23 <0> d   1      -4.660 -12.850  -6.184  0.00  0.00     0.001 A 
ATOM     28  C22 <0> d   1      -3.991 -12.450  -7.326  0.00  0.00     0.000 A 
ATOM     29  C21 <0> d   1      -3.430 -11.187  -7.401  0.00  0.00     0.001 A 
ATOM     30  C20 <0> d   1      -3.535 -10.318  -6.334  0.00  0.00     0.011 A 
ENDBRANCH  24  25
ENDBRANCH  22  23
ENDBRANCH   4  22
TORSDOF 5
