REMARK  10 active torsions:
REMARK  status: ('A' for Active; 'I' for Inactive)
REMARK    1  A    between atoms: O1_2  and  C2_3 
REMARK    2  A    between atoms: C5_6  and  C9_11 
REMARK    3  A    between atoms: C7_8  and  O2_9 
REMARK    4  A    between atoms: C14_16  and  O5_22 
REMARK    5  A    between atoms: O5_22  and  C18_23 
REMARK    6  A    between atoms: C18_23  and  C19_24 
REMARK    7  A    between atoms: C19_24  and  N1_25 
REMARK    8  A    between atoms: N2_28  and  C24_31 
REMARK    9  A    between atoms: C24_31  and  C25_32 
REMARK   10  A    between atoms: C25_32  and  O6_33 
ROOT
ATOM      1  C9  <0> d   1       2.479  -2.870   4.195  0.00  0.00     0.051 C 
ATOM      2  C10 <0> d   1       2.049  -2.664   5.482  0.00  0.00     0.032 C 
ATOM      3  C11 <0> d   1       2.772  -3.275   6.539  0.00  0.00    -0.001 A 
ATOM      4  C12 <0> d   1       2.266  -3.265   7.847  0.00  0.00     0.017 A 
ATOM      5  C13 <0> d   1       2.952  -3.891   8.845  0.00  0.00     0.038 A 
ATOM      6  C14 <0> d   1       4.159  -4.536   8.579  0.00  0.00     0.071 A 
ATOM      7  C15 <0> d   1       4.684  -4.541   7.297  0.00  0.00     0.075 A 
ATOM      8  C16 <0> d   1       4.003  -3.903   6.272  0.00  0.00     0.092 A 
ATOM      9  O3  <0> d   1       4.526  -3.864   5.021  0.00  0.00    -0.274 OA
ATOM     10  C17 <0> d   1       3.644  -3.749   3.998  0.00  0.00     0.299 C 
ATOM     11  O4  <0> d   1       3.810  -4.348   2.952  0.00  0.00    -0.259 OA
ENDROOT
BRANCH   6  12
ATOM     12  O5  <0> d   1       4.824  -5.164   9.582  0.00  0.00    -0.349 OA
BRANCH  12  13
ATOM     13  C18 <0> d   1       4.229  -5.122  10.881  0.00  0.00     0.206 C 
BRANCH  13  14
ATOM     14  C19 <0> d   1       5.116  -5.877  11.873  0.00  0.00     0.299 C 
BRANCH  14  15
ATOM     15  N1  <0> d   1       6.400  -5.177  12.012  0.00  0.00     0.093 N 
ATOM     16  C23 <0> d   1       6.256  -3.971  12.839  0.00  0.00     0.302 C 
ATOM     17  C22 <0> d   1       7.594  -3.231  12.894  0.00  0.00     0.302 C 
ATOM     18  N2  <0> d   1       8.623  -4.124  13.445  0.00  0.00     0.093 N 
ATOM     19  C21 <0> d   1       8.767  -5.330  12.618  0.00  0.00     0.302 C 
ATOM     20  C20 <0> d   1       7.429  -6.070  12.563  0.00  0.00     0.302 C 
BRANCH  18  21
ATOM     21  C24 <0> d   1       9.907  -3.424  13.585  0.00  0.00     0.298 C 
BRANCH  21  22
ATOM     22  C25 <0> d   1       9.778  -2.327  14.643  0.00  0.00     0.194 C 
BRANCH  22  23
ATOM     23  O6  <0> d   1       9.531  -2.922  15.918  0.00  0.00    -0.399 OA
ATOM     24  H30 <0> d   1       9.438  -2.284  16.639  0.00  0.00     0.209 HD
ENDBRANCH  22  23
ENDBRANCH  21  22
ENDBRANCH  18  21
ENDBRANCH  14  15
ENDBRANCH  13  14
ENDBRANCH  12  13
ENDBRANCH   6  12
BRANCH   1  25
ATOM     25  C5  <0> d   1       1.793  -2.236   3.045  0.00  0.00    -0.017 A 
ATOM     26  C4  <0> d   1       1.807  -0.849   2.901  0.00  0.00     0.015 A 
ATOM     27  C3  <0> d   1       1.168  -0.260   1.829  0.00  0.00     0.040 A 
ATOM     28  C2  <0> d   1       0.511  -1.044   0.893  0.00  0.00     0.101 A 
ATOM     29  C7  <0> d   1       0.490  -2.430   1.034  0.00  0.00     0.102 A 
ATOM     30  C6  <0> d   1       1.133  -3.026   2.104  0.00  0.00     0.052 A 
BRANCH  28  31
ATOM     31  O1  <0> d   1      -0.117  -0.460  -0.162  0.00  0.00    -0.353 OA
ATOM     32  C1  <0> d   1      -0.055   0.966  -0.245  0.00  0.00     0.210 C 
ENDBRANCH  28  31
BRANCH  29  33
ATOM     33  O2  <0> d   1      -0.160  -3.196   0.118  0.00  0.00    -0.353 OA
ATOM     34  C8  <0> d   1      -0.141  -4.610   0.325  0.00  0.00     0.210 C 
ENDBRANCH  29  33
ENDBRANCH   1  25
TORSDOF 10
