REMARK  4 active torsions:
REMARK  status: ('A' for Active; 'I' for Inactive)
REMARK    1  A    between atoms: O1_2  and  C2_3 
REMARK    2  A    between atoms: C5_6  and  C8_9 
REMARK    3  A    between atoms: C16_19  and  C17_20 
REMARK    4  A    between atoms: C17_20  and  N1_21 
ROOT
ATOM      1  C8  <0> d   1      -2.394   5.354   0.055  0.00  0.00     0.048 A 
ATOM      2  C9  <0> d   1      -1.163   5.926   0.045  0.00  0.00     0.159 A 
ATOM      3  O2  <0> d   1      -0.037   5.208   0.030  0.00  0.00    -0.320 OA
ATOM      4  C10 <0> d   1      -0.019   3.860   0.022  0.00  0.00     0.100 A 
ATOM      5  C11 <0> d   1      -1.223   3.135   0.031  0.00  0.00     0.050 A 
ATOM      6  C12 <0> d   1      -2.492   3.884   0.048  0.00  0.00     0.197 A 
ATOM      7  O3  <0> d   1      -3.570   3.315   0.055  0.00  0.00    -0.286 OA
ATOM      8  C13 <0> d   1      -1.206   1.739   0.017  0.00  0.00     0.021 A 
ATOM      9  C14 <0> d   1      -0.013   1.076   0.008  0.00  0.00     0.041 A 
ATOM     10  C15 <0> d   1       1.186   1.785   0.000  0.00  0.00     0.118 A 
ATOM     11  C16 <0> d   1       1.186   3.170   0.007  0.00  0.00     0.039 A 
ATOM     12  O4  <0> d   1       2.365   1.113  -0.015  0.00  0.00    -0.191 OA
ENDROOT
BRANCH  11  13
ATOM     13  C17 <0> d   1       2.490   3.926  -0.001  0.00  0.00     0.279 C 
BRANCH  13  14
ATOM     14  N1  <0> d   1       2.900   4.179  -1.389  0.00  0.00    -0.067 N 
ATOM     15  C23 <0> d   1       4.042   5.119  -1.441  0.00  0.00     0.235 C 
ATOM     16  C22 <0> d   1       5.371   4.433  -1.271  0.00  0.00     0.028 C 
ATOM     17  C21 <0> d   1       5.936   4.106  -2.669  0.00  0.00     0.002 C 
ATOM     18  C20 <0> d   1       5.310   2.924  -3.253  0.00  0.00     0.002 C 
ATOM     19  C19 <0> d   1       3.790   3.105  -3.447  0.00  0.00     0.028 C 
ATOM     20  C18 <0> d   1       3.113   2.909  -2.119  0.00  0.00     0.235 C 
ATOM     21  H25 <0> d   1       2.079   4.686  -1.916  0.00  0.00     0.280 HD
ENDBRANCH  13  14
ENDBRANCH  11  13
BRANCH   1  22
ATOM     22  C5  <0> d   1      -3.618   6.192   0.071  0.00  0.00    -0.020 A 
ATOM     23  C4  <0> d   1      -3.746   7.222   1.002  0.00  0.00     0.015 A 
ATOM     24  C3  <0> d   1      -4.884   8.001   1.014  0.00  0.00     0.037 A 
ATOM     25  C2  <0> d   1      -5.902   7.760   0.102  0.00  0.00     0.068 A 
ATOM     26  C7  <0> d   1      -5.777   6.735  -0.826  0.00  0.00     0.037 A 
ATOM     27  C6  <0> d   1      -4.639   5.956  -0.848  0.00  0.00     0.015 A 
BRANCH  25  28
ATOM     28  O1  <0> d   1      -7.023   8.528   0.117  0.00  0.00    -0.356 OA
ATOM     29  C1  <0> d   1      -8.030   8.225  -0.850  0.00  0.00     0.210 C 
ENDBRANCH  25  28
ENDBRANCH   1  22
TORSDOF 4
