REMARK  3 active torsions:
REMARK  status: ('A' for Active; 'I' for Inactive)
REMARK    1  A    between atoms: N1_7  and  C7_8 
REMARK    2  A    between atoms: C7_8  and  C8_9 
REMARK    3  A    between atoms: C15_17  and  C17_20 
ROOT
ATOM      1  C8  <0> d   1      -7.197  -3.087  -0.030  0.00  0.00     0.039 A 
ATOM      2  C9  <0> d   1      -8.222  -2.884   0.879  0.00  0.00     0.118 A 
ATOM      3  C10 <0> d   1      -8.101  -1.923   1.881  0.00  0.00     0.041 A 
ATOM      4  C11 <0> d   1      -6.967  -1.167   1.978  0.00  0.00     0.021 A 
ATOM      5  C12 <0> d   1      -5.926  -1.361   1.070  0.00  0.00     0.050 A 
ATOM      6  C13 <0> d   1      -6.038  -2.328   0.055  0.00  0.00     0.100 A 
ATOM      7  O1  <0> d   1      -5.031  -2.513  -0.822  0.00  0.00    -0.320 OA
ATOM      8  C14 <0> d   1      -3.896  -1.810  -0.793  0.00  0.00     0.159 A 
ATOM      9  C15 <0> d   1      -3.653  -0.850   0.136  0.00  0.00     0.048 A 
ATOM     10  C16 <0> d   1      -4.688  -0.564   1.145  0.00  0.00     0.197 A 
ATOM     11  O2  <0> d   1      -4.528   0.290   2.000  0.00  0.00    -0.286 OA
ATOM     12  O5  <0> d   1      -9.354  -3.627   0.793  0.00  0.00    -0.191 OA
ENDROOT
BRANCH   9  13
ATOM     13  C17 <0> d   1      -2.374  -0.099   0.132  0.00  0.00    -0.017 A 
ATOM     14  C22 <0> d   1      -1.163  -0.785   0.076  0.00  0.00     0.052 A 
ATOM     15  C21 <0> d   1       0.031  -0.082   0.071  0.00  0.00     0.102 A 
ATOM     16  C20 <0> d   1       0.018   1.308   0.121  0.00  0.00     0.102 A 
ATOM     17  O3  <0> d   1       1.206  -0.766   0.019  0.00  0.00    -0.346 OA
ATOM     18  C19 <0> d   1      -1.190   1.990   0.174  0.00  0.00     0.040 A 
ATOM     19  O4  <0> d   1       1.181   2.015   0.112  0.00  0.00    -0.346 OA
ATOM     20  C18 <0> d   1      -2.381   1.293   0.184  0.00  0.00     0.015 A 
ATOM     21  C24 <0> d   1       2.376   1.294   0.430  0.00  0.00     0.202 C 
ATOM     22  C23 <0> d   1       2.368  -0.021  -0.362  0.00  0.00     0.202 C 
ENDBRANCH   9  13
BRANCH   1  23
ATOM     23  C7  <0> d   1      -7.340  -4.129  -1.109  0.00  0.00     0.279 C 
BRANCH  23  24
ATOM     24  N1  <0> d   1      -6.828  -5.415  -0.619  0.00  0.00    -0.063 N 
ATOM     25  C2  <0> d   1      -7.238  -6.516  -1.500  0.00  0.00     0.184 C 
ATOM     26  C1  <0> d   1      -8.758  -6.494  -1.670  0.00  0.00     0.040 C 
ATOM     27  C3  <0> d   1      -6.813  -7.851  -0.884  0.00  0.00     0.033 C 
ATOM     28  C4  <0> d   1      -5.293  -7.860  -0.697  0.00  0.00     0.004 C 
ATOM     29  C5  <0> d   1      -4.888  -6.676   0.185  0.00  0.00     0.028 C 
ATOM     30  C6  <0> d   1      -5.368  -5.376  -0.462  0.00  0.00     0.235 C 
ATOM     31  H25 <0> d   1      -7.266  -5.600   0.373  0.00  0.00     0.280 HD
ENDBRANCH  23  24
ENDBRANCH   1  23
TORSDOF 3
