REMARK  7 active torsions:
REMARK  status: ('A' for Active; 'I' for Inactive)
REMARK    1  A    between atoms: C3_4  and  C11_13 
REMARK    2  A    between atoms: C8_9  and  O1_11 
REMARK    3  A    between atoms: C17_20  and  O4_34 
REMARK    4  A    between atoms: C18_21  and  C20_24 
REMARK    5  A    between atoms: C20_24  and  N2_25 
REMARK    6  A    between atoms: N2_25  and  C22_27 
REMARK    7  A    between atoms: C22_27  and  C23_28 
ROOT
ATOM      1  C11 <0> d   1      -3.965  -1.904   2.279  0.00  0.00     0.055 C 
ATOM      2  C12 <0> d   1      -3.234  -0.755   2.346  0.00  0.00     0.128 A 
ATOM      3  C13 <0> d   1      -3.368   0.257   3.333  0.00  0.00     0.218 A 
ATOM      4  O2  <0> d   1      -4.143   0.276   4.275  0.00  0.00    -0.284 OA
ATOM      5  C14 <0> d   1      -2.368   1.278   2.976  0.00  0.00     0.051 A 
ATOM      6  C15 <0> d   1      -2.000   2.500   3.539  0.00  0.00     0.021 A 
ATOM      7  C16 <0> d   1      -1.008   3.243   2.963  0.00  0.00     0.038 A 
ATOM      8  C17 <0> d   1      -0.360   2.781   1.821  0.00  0.00     0.076 A 
ATOM      9  C18 <0> d   1      -0.718   1.572   1.248  0.00  0.00     0.035 A 
ATOM     10  C19 <0> d   1      -1.724   0.805   1.821  0.00  0.00     0.101 A 
ATOM     11  O3  <0> d   1      -2.259  -0.388   1.482  0.00  0.00    -0.305 OA
ENDROOT
BRANCH   1  12
ATOM     12  C3  <0> d   1      -3.723  -2.863   1.204  0.00  0.00    -0.005 A 
ATOM     13  C2  <0> d   1      -2.800  -2.748   0.186  0.00  0.00     0.103 A 
ATOM     14  N1  <0> d   1      -2.871  -3.839  -0.614  0.00  0.00    -0.360 N 
ATOM     15  C1  <0> d   1      -2.036  -4.063  -1.797  0.00  0.00     0.156 C 
ATOM     16  C5  <0> d   1      -3.845  -4.709  -0.162  0.00  0.00     0.045 A 
ATOM     17  C4  <0> d   1      -4.420  -4.145   0.988  0.00  0.00     0.005 A 
ATOM     18  C6  <0> d   1      -4.303  -5.939  -0.622  0.00  0.00     0.033 A 
ATOM     19  C9  <0> d   1      -5.440  -4.813   1.659  0.00  0.00     0.051 A 
ATOM     20  C8  <0> d   1      -5.883  -6.036   1.189  0.00  0.00     0.069 A 
ATOM     21  C7  <0> d   1      -5.313  -6.594   0.049  0.00  0.00     0.039 A 
BRANCH  20  22
ATOM     22  O1  <0> d   1      -6.878  -6.693   1.841  0.00  0.00    -0.356 OA
ATOM     23  C10 <0> d   1      -7.288  -7.951   1.300  0.00  0.00     0.210 C 
ENDBRANCH  20  22
ENDBRANCH   1  12
BRANCH   9  24
ATOM     24  C20 <0> d   1      -0.013   1.086   0.008  0.00  0.00     0.279 C 
BRANCH  24  25
ATOM     25  N2  <0> d   1      -0.723   1.572  -1.182  0.00  0.00    -0.067 N 
ATOM     26  C21 <0> d   1      -0.640   3.036  -1.283  0.00  0.00     0.270 C 
ATOM     27  H26 <0> d   1      -1.784   1.301  -1.077  0.00  0.00     0.280 HD
BRANCH  25  28
ATOM     28  C22 <0> d   1      -0.211   0.930  -2.400  0.00  0.00     0.273 C 
BRANCH  28  29
ATOM     29  C23 <0> d   1      -1.114   1.262  -3.560  0.00  0.00    -0.033 A 
ATOM     30  C28 <0> d   1      -0.870   2.385  -4.328  0.00  0.00     0.009 A 
ATOM     31  C27 <0> d   1      -1.699   2.689  -5.392  0.00  0.00     0.001 A 
ATOM     32  C26 <0> d   1      -2.771   1.868  -5.689  0.00  0.00     0.000 A 
ATOM     33  C25 <0> d   1      -3.015   0.745  -4.922  0.00  0.00     0.001 A 
ATOM     34  C24 <0> d   1      -2.184   0.439  -3.860  0.00  0.00     0.009 A 
ENDBRANCH  28  29
ENDBRANCH  25  28
ENDBRANCH  24  25
ENDBRANCH   9  24
BRANCH   8  35
ATOM     35  O4  <0> d   1       0.628   3.525   1.260  0.00  0.00    -0.360 OA
ATOM     36  H27 <0> d   1       1.143   3.164   0.358  0.00  0.00     0.217 HD
ENDBRANCH   8  35
TORSDOF 7
