REMARK  7 active torsions:
REMARK  status: ('A' for Active; 'I' for Inactive)
REMARK    1  A    between atoms: C5_6  and  C6_7 
REMARK    2  A    between atoms: C12_14  and  O4_28 
REMARK    3  A    between atoms: C13_15  and  C15_18 
REMARK    4  A    between atoms: C15_18  and  N1_19 
REMARK    5  A    between atoms: N2_22  and  C20_25 
REMARK    6  A    between atoms: C20_25  and  C21_26 
REMARK    7  A    between atoms: C21_26  and  O3_27 
ROOT
ATOM      1  C6  <0> d   1       0.030  -0.306   2.517  0.00  0.00     0.060 C 
ATOM      2  C7  <0> d   1       0.052  -1.211   3.537  0.00  0.00     0.128 A 
ATOM      3  C8  <0> d   1       0.055  -0.900   4.923  0.00  0.00     0.218 A 
ATOM      4  O1  <0> d   1       0.039   0.208   5.434  0.00  0.00    -0.284 OA
ATOM      5  C9  <0> d   1       0.082  -2.202   5.611  0.00  0.00     0.051 A 
ATOM      6  C10 <0> d   1       0.098  -2.579   6.954  0.00  0.00     0.021 A 
ATOM      7  C11 <0> d   1       0.123  -3.904   7.288  0.00  0.00     0.038 A 
ATOM      8  C12 <0> d   1       0.135  -4.878   6.293  0.00  0.00     0.076 A 
ATOM      9  C13 <0> d   1       0.119  -4.518   4.955  0.00  0.00     0.038 A 
ATOM     10  C14 <0> d   1       0.093  -3.177   4.599  0.00  0.00     0.101 A 
ATOM     11  O2  <0> d   1       0.069  -2.558   3.399  0.00  0.00    -0.305 OA
ENDROOT
BRANCH   9  12
ATOM     12  C15 <0> d   1       0.132  -5.582   3.888  0.00  0.00     0.317 C 
BRANCH  12  13
ATOM     13  N1  <0> d   1      -1.248  -5.953   3.550  0.00  0.00     0.096 N 
ATOM     14  C19 <0> d   1      -1.286  -6.809   2.355  0.00  0.00     0.303 C 
ATOM     15  C18 <0> d   1      -2.743  -7.107   1.991  0.00  0.00     0.302 C 
ATOM     16  N2  <0> d   1      -3.404  -7.764   3.127  0.00  0.00     0.093 N 
ATOM     17  C17 <0> d   1      -3.366  -6.909   4.321  0.00  0.00     0.302 C 
ATOM     18  C16 <0> d   1      -1.910  -6.610   4.686  0.00  0.00     0.303 C 
BRANCH  16  19
ATOM     19  C20 <0> d   1      -4.785  -8.135   2.789  0.00  0.00     0.298 C 
BRANCH  19  20
ATOM     20  C21 <0> d   1      -4.772  -9.215   1.705  0.00  0.00     0.194 C 
BRANCH  20  21
ATOM     21  O3  <0> d   1      -4.177 -10.405   2.226  0.00  0.00    -0.399 OA
ATOM     22  H23 <0> d   1      -4.135 -11.134   1.592  0.00  0.00     0.209 HD
ENDBRANCH  20  21
ENDBRANCH  19  20
ENDBRANCH  16  19
ENDBRANCH  12  13
ENDBRANCH   9  12
BRANCH   8  23
ATOM     23  O4  <0> d   1       0.161  -6.191   6.637  0.00  0.00    -0.360 OA
ATOM     24  H24 <0> d   1      -0.715  -6.588   6.742  0.00  0.00     0.217 HD
ENDBRANCH   8  23
BRANCH   1  25
ATOM     25  C5  <0> d   1       0.023  -0.752   1.176  0.00  0.00     0.013 A 
ATOM     26  C2  <0> d   1       0.002  -0.004   0.002  0.00  0.00    -0.044 A 
ATOM     27  C1  <0> d   1      -0.018   1.503   0.010  0.00  0.00     0.049 C 
ATOM     28  C3  <0> d   1       0.007  -0.729  -1.164  0.00  0.00     0.015 A 
ATOM     29  C4  <0> d   1       0.026  -2.084  -1.099  0.00  0.00     0.051 A 
ATOM     30  S1  <0> d   1       0.038  -2.420   0.547  0.00  0.00    -0.102 SA
ENDBRANCH   1  25
TORSDOF 7
