REMARK  6 active torsions:
REMARK  status: ('A' for Active; 'I' for Inactive)
REMARK    1  A    between atoms: O1_2  and  C2_3 
REMARK    2  A    between atoms: C7_8  and  C8_9 
REMARK    3  A    between atoms: C10_12  and  N3_24 
REMARK    4  A    between atoms: C11_14  and  C12_15 
REMARK    5  A    between atoms: C15_18  and  O3_22 
REMARK    6  A    between atoms: C17_20  and  O2_21 
ROOT
ATOM      1  C8  <0> d   1       0.070  -2.836   0.029  0.00  0.00     0.025 A 
ATOM      2  C9  <0> d   1      -0.952  -3.740   0.317  0.00  0.00     0.151 A 
ATOM      3  N1  <0> d   1      -1.485  -4.444  -0.667  0.00  0.00    -0.075 NA
ATOM      4  C10 <0> d   1      -1.064  -4.304  -1.917  0.00  0.00     0.720 A 
ATOM      5  N2  <0> d   1      -0.097  -3.460  -2.240  0.00  0.00    -0.062 NA
ATOM      6  C11 <0> d   1       0.489  -2.709  -1.311  0.00  0.00     0.101 A 
ENDROOT
BRANCH   6   7
ATOM      7  C12 <0> d   1       1.565  -1.762  -1.676  0.00  0.00     0.028 A 
ATOM      8  C17 <0> d   1       1.381  -0.864  -2.736  0.00  0.00     0.081 A 
ATOM      9  C16 <0> d   1       2.389   0.024  -3.068  0.00  0.00     0.074 A 
ATOM     10  C15 <0> d   1       3.583   0.014  -2.361  0.00  0.00     0.070 A 
ATOM     11  C14 <0> d   1       3.769  -0.880  -1.314  0.00  0.00     0.038 A 
ATOM     12  C13 <0> d   1       2.769  -1.763  -0.971  0.00  0.00     0.019 A 
BRANCH   8  13
ATOM     13  O2  <0> d   1       0.214  -0.861  -3.430  0.00  0.00    -0.360 OA
ATOM     14  H17 <0> d   1      -0.457  -0.265  -3.070  0.00  0.00     0.217 HD
ENDBRANCH   8  13
BRANCH  10  15
ATOM     15  O3  <0> d   1       4.573   0.882  -2.694  0.00  0.00    -0.356 OA
ATOM     16  C18 <0> d   1       5.776   0.820  -1.925  0.00  0.00     0.210 C 
ENDBRANCH  10  15
ENDBRANCH   6   7
BRANCH   1  17
ATOM     17  C7  <0> d   1       0.695  -2.026   1.102  0.00  0.00     0.011 A 
ATOM     18  C2  <0> d   1       0.532  -0.637   1.119  0.00  0.00     0.079 A 
ATOM     19  C3  <0> d   1       1.115   0.111   2.129  0.00  0.00     0.037 A 
ATOM     20  C4  <0> d   1       1.858  -0.514   3.112  0.00  0.00     0.003 A 
ATOM     21  C5  <0> d   1       2.026  -1.887   3.095  0.00  0.00     0.001 A 
ATOM     22  C6  <0> d   1       1.451  -2.645   2.095  0.00  0.00     0.015 A 
BRANCH  18  23
ATOM     23  O1  <0> d   1      -0.199  -0.025   0.151  0.00  0.00    -0.355 OA
ATOM     24  C1  <0> d   1      -0.322   1.397   0.233  0.00  0.00     0.210 C 
ENDBRANCH  18  23
ENDBRANCH   1  17
BRANCH   4  25
ATOM     25  N3  <0> d   1      -1.653  -5.064  -2.913  0.00  0.00    -0.231 N 
ATOM     26  H15 <0> d   1      -2.362  -5.687  -2.692  0.00  0.00     0.174 HD
ATOM     27  H16 <0> d   1      -1.356  -4.973  -3.832  0.00  0.00     0.174 HD
ENDBRANCH   4  25
TORSDOF 6
