REMARK  4 active torsions:
REMARK  status: ('A' for Active; 'I' for Inactive)
REMARK    1  A    between atoms: C5_5  and  C6_7 
REMARK    2  A    between atoms: C12_14  and  O4_26 
REMARK    3  A    between atoms: C13_15  and  C15_18 
REMARK    4  A    between atoms: C15_18  and  N1_19 
ROOT
ATOM      1  C6  <0> d   1       3.238   4.020   5.401  0.00  0.00     0.078 C 
ATOM      2  C7  <0> d   1       3.901   3.156   4.579  0.00  0.00     0.129 A 
ATOM      3  C8  <0> d   1       5.267   3.255   4.199  0.00  0.00     0.218 A 
ATOM      4  O2  <0> d   1       6.070   4.110   4.535  0.00  0.00    -0.284 OA
ATOM      5  C9  <0> d   1       5.506   2.102   3.313  0.00  0.00     0.051 A 
ATOM      6  C10 <0> d   1       6.624   1.638   2.620  0.00  0.00     0.021 A 
ATOM      7  C11 <0> d   1       6.531   0.508   1.858  0.00  0.00     0.038 A 
ATOM      8  C12 <0> d   1       5.326  -0.185   1.777  0.00  0.00     0.076 A 
ATOM      9  C13 <0> d   1       4.205   0.267   2.455  0.00  0.00     0.038 A 
ATOM     10  C14 <0> d   1       4.284   1.414   3.233  0.00  0.00     0.101 A 
ATOM     11  O3  <0> d   1       3.369   2.062   3.987  0.00  0.00    -0.305 OA
ENDROOT
BRANCH   9  12
ATOM     12  C15 <0> d   1       2.905  -0.488   2.352  0.00  0.00     0.317 C 
BRANCH  12  13
ATOM     13  N1  <0> d   1       2.123   0.034   1.224  0.00  0.00     0.096 N 
ATOM     14  C19 <0> d   1       2.103   1.504   1.232  0.00  0.00     0.300 C 
ATOM     15  C18 <0> d   1       1.348   2.008  -0.000  0.00  0.00     0.264 C 
ATOM     16  N2  <0> d   1      -0.018   1.465   0.010  0.00  0.00    -0.072 N 
ATOM     17  C17 <0> d   1       0.002  -0.004   0.002  0.00  0.00     0.264 C 
ATOM     18  C20 <0> d   1      -0.800   1.987  -1.118  0.00  0.00     0.269 C 
ATOM     19  H23 <0> d   1      -0.507   1.793   0.939  0.00  0.00     0.279 HD
ATOM     20  C16 <0> d   1       0.757  -0.508   1.234  0.00  0.00     0.300 C 
ENDBRANCH  12  13
ENDBRANCH   9  12
BRANCH   8  21
ATOM     21  O4  <0> d   1       5.247  -1.311   1.022  0.00  0.00    -0.360 OA
ATOM     22  H22 <0> d   1       4.297  -1.862   0.954  0.00  0.00     0.217 HD
ENDBRANCH   8  21
BRANCH   1  23
ATOM     23  C5  <0> d   1       1.874   3.804   5.698  0.00  0.00     0.078 A 
ATOM     24  C4  <0> d   1       1.083   4.594   6.511  0.00  0.00     0.040 A 
ATOM     25  C3  <0> d   1      -0.191   4.008   6.519  0.00  0.00     0.035 A 
ATOM     26  C2  <0> d   1      -0.132   2.911   5.731  0.00  0.00     0.050 A 
ATOM     27  C1  <0> d   1      -1.278   1.973   5.450  0.00  0.00     0.076 C 
ATOM     28  O1  <0> d   1       1.108   2.794   5.235  0.00  0.00    -0.316 OA
ENDBRANCH   1  23
TORSDOF 4
