REMARK  5 active torsions:
REMARK  status: ('A' for Active; 'I' for Inactive)
REMARK    1  A    between atoms: C2_2  and  N1_3 
REMARK    2  A    between atoms: N2_6  and  C7_9 
REMARK    3  A    between atoms: C7_9  and  C8_10 
REMARK    4  A    between atoms: C9_11  and  O3_26 
REMARK    5  A    between atoms: C15_18  and  C16_19 
ROOT
ATOM      1  C8  <0> d   1       3.173   4.757  -0.003  0.00  0.00     0.038 A 
ATOM      2  C9  <0> d   1       4.555   4.859  -0.015  0.00  0.00     0.076 A 
ATOM      3  C10 <0> d   1       5.349   3.716  -0.029  0.00  0.00     0.038 A 
ATOM      4  C11 <0> d   1       4.772   2.477  -0.031  0.00  0.00     0.021 A 
ATOM      5  C12 <0> d   1       3.383   2.359  -0.018  0.00  0.00     0.051 A 
ATOM      6  C13 <0> d   1       2.572   3.506  -0.004  0.00  0.00     0.101 A 
ATOM      7  O1  <0> d   1       1.277   3.123   0.001  0.00  0.00    -0.305 OA
ATOM      8  C14 <0> d   1       1.160   1.774   0.001  0.00  0.00     0.128 A 
ATOM      9  C15 <0> d   1      -0.013   1.076   0.008  0.00  0.00     0.060 C 
ATOM     10  C20 <0> d   1       2.462   1.208  -0.015  0.00  0.00     0.218 A 
ATOM     11  O2  <0> d   1       2.756   0.024  -0.024  0.00  0.00    -0.284 OA
ENDROOT
BRANCH   1  12
ATOM     12  C7  <0> d   1       2.324   6.002   0.013  0.00  0.00     0.317 C 
BRANCH  12  13
ATOM     13  N2  <0> d   1       2.062   6.399   1.403  0.00  0.00     0.096 N 
ATOM     14  C4  <0> d   1       1.443   7.730   1.462  0.00  0.00     0.300 C 
ATOM     15  C3  <0> d   1       1.260   8.139   2.925  0.00  0.00     0.265 C 
ATOM     16  N1  <0> d   1       0.424   7.142   3.609  0.00  0.00    -0.068 N 
ATOM     17  C6  <0> d   1       1.043   5.811   3.550  0.00  0.00     0.265 C 
ATOM     18  H23 <0> d   1      -0.542   7.091   3.086  0.00  0.00     0.280 HD
ATOM     19  C5  <0> d   1       1.227   5.402   2.086  0.00  0.00     0.300 C 
BRANCH  16  20
ATOM     20  C2  <0> d   1       0.162   7.539   4.999  0.00  0.00     0.230 C 
ATOM     21  C1  <0> d   1      -0.491   6.375   5.748  0.00  0.00     0.034 C 
ENDBRANCH  16  20
ENDBRANCH  12  13
ENDBRANCH   1  12
BRANCH   2  22
ATOM     22  O3  <0> d   1       5.139   6.085  -0.014  0.00  0.00    -0.360 OA
ATOM     23  H22 <0> d   1       6.236   6.171  -0.024  0.00  0.00     0.217 HD
ENDBRANCH   2  22
BRANCH   9  24
ATOM     24  C16 <0> d   1      -1.245   1.765   0.018  0.00  0.00     0.007 A 
ATOM     25  S1  <0> d   1      -1.551   3.523   0.036  0.00  0.00    -0.102 SA
ATOM     26  C19 <0> d   1      -3.284   3.487   0.037  0.00  0.00     0.050 A 
ATOM     27  C18 <0> d   1      -3.568   2.157   0.031  0.00  0.00     0.008 A 
ATOM     28  C17 <0> d   1      -2.539   1.251   0.021  0.00  0.00     0.019 A 
ENDBRANCH   9  24
TORSDOF 5
