REMARK  7 active torsions:
REMARK  status: ('A' for Active; 'I' for Inactive)
REMARK    1  A    between atoms: C2_2  and  N1_3 
REMARK    2  A    between atoms: N2_6  and  C7_9 
REMARK    3  A    between atoms: C7_9  and  C8_10 
REMARK    4  A    between atoms: C8_10  and  O1_11 
REMARK    5  A    between atoms: O1_11  and  C9_12 
REMARK    6  A    between atoms: C14_17  and  C18_23 
REMARK    7  A    between atoms: C21_26  and  O4_29 
ROOT
ATOM      1  C9  <0> d   1      -0.045   1.360  -0.153  0.00  0.00     0.071 A 
ATOM      2  C10 <0> d   1       1.153   2.065  -0.064  0.00  0.00     0.038 A 
ATOM      3  C11 <0> d   1       2.346   1.405  -0.102  0.00  0.00     0.017 A 
ATOM      4  C12 <0> d   1       2.371   0.009  -0.233  0.00  0.00    -0.001 A 
ATOM      5  C13 <0> d   1       3.610  -0.682  -0.275  0.00  0.00     0.032 A 
ATOM      6  C14 <0> d   1       3.603  -2.045  -0.403  0.00  0.00     0.051 A 
ATOM      7  C15 <0> d   1       2.319  -2.744  -0.493  0.00  0.00     0.299 A 
ATOM      8  O2  <0> d   1       2.295  -3.956  -0.607  0.00  0.00    -0.259 OA
ATOM      9  O3  <0> d   1       1.168  -2.052  -0.450  0.00  0.00    -0.274 OA
ATOM     10  C16 <0> d   1       1.164  -0.707  -0.324  0.00  0.00     0.092 A 
ATOM     11  C17 <0> d   1      -0.041  -0.019  -0.283  0.00  0.00     0.075 A 
ENDROOT
BRANCH   1  12
ATOM     12  O1  <0> d   1      -1.226   2.030  -0.119  0.00  0.00    -0.349 OA
BRANCH  12  13
ATOM     13  C8  <0> d   1      -1.161   3.451   0.017  0.00  0.00     0.203 C 
BRANCH  13  14
ATOM     14  C7  <0> d   1      -2.579   4.026   0.036  0.00  0.00     0.261 C 
BRANCH  14  15
ATOM     15  N2  <0> d   1      -3.282   3.554   1.236  0.00  0.00    -0.066 N 
ATOM     16  C4  <0> d   1      -2.821   4.271   2.433  0.00  0.00     0.265 C 
ATOM     17  C3  <0> d   1      -3.518   3.697   3.669  0.00  0.00     0.300 C 
ATOM     18  N1  <0> d   1      -4.973   3.825   3.511  0.00  0.00     0.091 N 
ATOM     19  C6  <0> d   1      -5.434   3.107   2.314  0.00  0.00     0.300 C 
ATOM     20  C5  <0> d   1      -4.737   3.681   1.078  0.00  0.00     0.265 C 
ATOM     21  H29 <0> d   1      -3.046   2.488   1.368  0.00  0.00     0.280 HD
BRANCH  18  22
ATOM     22  C2  <0> d   1      -5.676   3.353   4.711  0.00  0.00     0.268 C 
ATOM     23  C1  <0> d   1      -7.157   3.727   4.614  0.00  0.00     0.037 C 
ENDBRANCH  18  22
ENDBRANCH  14  15
ENDBRANCH  13  14
ENDBRANCH  12  13
ENDBRANCH   1  12
BRANCH   6  24
ATOM     24  C18 <0> d   1       4.876  -2.801  -0.449  0.00  0.00    -0.020 A 
ATOM     25  C23 <0> d   1       5.062  -3.907   0.380  0.00  0.00     0.015 A 
ATOM     26  C22 <0> d   1       6.248  -4.610   0.334  0.00  0.00     0.037 A 
ATOM     27  C21 <0> d   1       7.256  -4.217  -0.537  0.00  0.00     0.068 A 
ATOM     28  C20 <0> d   1       7.074  -3.116  -1.363  0.00  0.00     0.037 A 
ATOM     29  C19 <0> d   1       5.888  -2.413  -1.326  0.00  0.00     0.015 A 
BRANCH  27  30
ATOM     30  O4  <0> d   1       8.423  -4.912  -0.580  0.00  0.00    -0.356 OA
ATOM     31  C24 <0> d   1       9.417  -4.453  -1.498  0.00  0.00     0.210 C 
ENDBRANCH  27  30
ENDBRANCH   6  24
TORSDOF 7
