REMARK  5 active torsions:
REMARK  status: ('A' for Active; 'I' for Inactive)
REMARK    1  A    between atoms: C2_2  and  N1_3 
REMARK    2  A    between atoms: N2_6  and  C7_9 
REMARK    3  A    between atoms: C7_9  and  C8_10 
REMARK    4  A    between atoms: C9_11  and  O4_31 
REMARK    5  A    between atoms: C15_18  and  C16_19 
ROOT
ATOM      1  C8  <0> d   1       1.762  -4.052   4.729  0.00  0.00     0.038 A 
ATOM      2  C9  <0> d   1       0.735  -4.762   5.330  0.00  0.00     0.077 A 
ATOM      3  C10 <0> d   1       0.742  -6.154   5.329  0.00  0.00     0.045 A 
ATOM      4  C11 <0> d   1       1.765  -6.836   4.733  0.00  0.00    -0.042 A 
ATOM      5  C12 <0> d   1       2.805  -6.134   4.124  0.00  0.00     0.057 A 
ATOM      6  C13 <0> d   1       2.807  -4.729   4.114  0.00  0.00     0.102 A 
ATOM      7  O1  <0> d   1       3.904  -4.281   3.466  0.00  0.00    -0.305 OA
ATOM      8  C14 <0> d   1       4.673  -5.299   3.014  0.00  0.00     0.129 A 
ATOM      9  C15 <0> d   1       5.842  -5.179   2.325  0.00  0.00     0.078 C 
ATOM     10  C24 <0> d   1       4.026  -6.555   3.412  0.00  0.00     0.219 A 
ATOM     11  O3  <0> d   1       4.406  -7.693   3.192  0.00  0.00    -0.284 OA
ATOM     12  C25 <0> d   1       1.770  -8.343   4.734  0.00  0.00     0.049 C 
ENDROOT
BRANCH   9  13
ATOM     13  C16 <0> d   1       6.356  -3.896   2.019  0.00  0.00     0.079 A 
ATOM     14  O2  <0> d   1       5.777  -2.723   2.357  0.00  0.00    -0.310 OA
ATOM     15  C23 <0> d   1       6.531  -1.696   1.914  0.00  0.00     0.086 A 
ATOM     16  C18 <0> d   1       7.646  -2.243   1.250  0.00  0.00     0.000 A 
ATOM     17  C22 <0> d   1       6.397  -0.316   1.994  0.00  0.00     0.038 A 
ATOM     18  C17 <0> d   1       7.508  -3.651   1.333  0.00  0.00     0.051 A 
ATOM     19  C19 <0> d   1       8.603  -1.396   0.681  0.00  0.00     0.014 A 
ATOM     20  C20 <0> d   1       8.450  -0.042   0.772  0.00  0.00     0.001 A 
ATOM     21  C21 <0> d   1       7.352   0.501   1.425  0.00  0.00     0.003 A 
ENDBRANCH   9  13
BRANCH   1  22
ATOM     22  C7  <0> d   1       1.741  -2.545   4.737  0.00  0.00     0.317 C 
BRANCH  22  23
ATOM     23  N2  <0> d   1       1.031  -2.059   3.547  0.00  0.00     0.096 N 
ATOM     24  C4  <0> d   1       0.782  -0.613   3.636  0.00  0.00     0.303 C 
ATOM     25  C3  <0> d   1      -0.027  -0.161   2.418  0.00  0.00     0.302 C 
ATOM     26  N1  <0> d   1       0.713  -0.491   1.192  0.00  0.00     0.091 N 
ATOM     27  C6  <0> d   1       0.961  -1.936   1.103  0.00  0.00     0.302 C 
ATOM     28  C5  <0> d   1       1.770  -2.389   2.321  0.00  0.00     0.303 C 
BRANCH  26  29
ATOM     29  C2  <0> d   1       0.002  -0.004   0.002  0.00  0.00     0.268 C 
ATOM     30  C1  <0> d   1      -0.019   1.526   0.010  0.00  0.00     0.037 C 
ENDBRANCH  26  29
ENDBRANCH  22  23
ENDBRANCH   1  22
BRANCH   2  31
ATOM     31  O4  <0> d   1      -0.287  -4.095   5.925  0.00  0.00    -0.360 OA
ATOM     32  H26 <0> d   1      -1.028  -3.903   5.334  0.00  0.00     0.217 HD
ENDBRANCH   2  31
TORSDOF 5
