REMARK  7 active torsions:
REMARK  status: ('A' for Active; 'I' for Inactive)
REMARK    1  A    between atoms: C6_6  and  C7_7 
REMARK    2  A    between atoms: C13_14  and  C17_22 
REMARK    3  A    between atoms: C15_17  and  C16_18 
REMARK    4  A    between atoms: C17_22  and  N1_23 
REMARK    5  A    between atoms: N2_26  and  C22_29 
REMARK    6  A    between atoms: C22_29  and  C23_30 
REMARK    7  A    between atoms: C23_30  and  O3_31 
ROOT
ATOM      1  C7  <0> d   1      -2.406   4.377  -0.059  0.00  0.00     0.064 A 
ATOM      2  C8  <0> d   1      -1.104   4.897  -0.509  0.00  0.00     0.198 A 
ATOM      3  O1  <0> d   1      -1.006   5.971  -1.077  0.00  0.00    -0.286 OA
ATOM      4  C9  <0> d   1       0.076   4.056  -0.238  0.00  0.00     0.050 A 
ATOM      5  C10 <0> d   1       1.356   4.458  -0.623  0.00  0.00     0.021 A 
ATOM      6  C11 <0> d   1       2.428   3.655  -0.356  0.00  0.00     0.041 A 
ATOM      7  C12 <0> d   1       2.249   2.438   0.298  0.00  0.00     0.118 A 
ATOM      8  C13 <0> d   1       0.986   2.025   0.686  0.00  0.00     0.039 A 
ATOM      9  C14 <0> d   1      -0.116   2.827   0.417  0.00  0.00     0.101 A 
ATOM     10  O2  <0> d   1      -1.351   2.443   0.794  0.00  0.00    -0.303 OA
ATOM     11  C15 <0> d   1      -2.447   3.173   0.568  0.00  0.00     0.174 A 
ATOM     12  O4  <0> d   1       3.323   1.650   0.557  0.00  0.00    -0.191 OA
ENDROOT
BRANCH   8  13
ATOM     13  C17 <0> d   1       0.806   0.706   1.392  0.00  0.00     0.279 C 
BRANCH  13  14
ATOM     14  N1  <0> d   1       0.917   0.908   2.843  0.00  0.00    -0.064 N 
ATOM     15  C21 <0> d   1       0.515  -0.300   3.576  0.00  0.00     0.265 C 
ATOM     16  C20 <0> d   1       0.568  -0.023   5.080  0.00  0.00     0.300 C 
ATOM     17  N2  <0> d   1       1.929   0.387   5.452  0.00  0.00     0.093 N 
ATOM     18  C19 <0> d   1       2.331   1.595   4.720  0.00  0.00     0.300 C 
ATOM     19  C18 <0> d   1       2.278   1.318   3.215  0.00  0.00     0.265 C 
ATOM     20  H22 <0> d   1       0.229   1.720   3.123  0.00  0.00     0.280 HD
BRANCH  17  21
ATOM     21  C22 <0> d   1       2.039   0.589   6.903  0.00  0.00     0.298 C 
BRANCH  21  22
ATOM     22  C23 <0> d   1       2.099  -0.769   7.605  0.00  0.00     0.194 C 
BRANCH  22  23
ATOM     23  O3  <0> d   1       3.307  -1.440   7.241  0.00  0.00    -0.399 OA
ATOM     24  H21 <0> d   1       3.526  -2.438   7.650  0.00  0.00     0.209 HD
ENDBRANCH  22  23
ENDBRANCH  21  22
ENDBRANCH  17  21
ENDBRANCH  13  14
ENDBRANCH   8  13
BRANCH  11  25
ATOM     25  C16 <0> d   1      -3.779   2.640   1.029  0.00  0.00     0.440 C 
ATOM     26  F1  <0> d   1      -4.570   2.337  -0.084  0.00  0.00    -0.164 F 
ATOM     27  F2  <0> d   1      -3.581   1.483   1.789  0.00  0.00    -0.164 F 
ATOM     28  F3  <0> d   1      -4.423   3.607   1.809  0.00  0.00    -0.164 F 
ENDBRANCH  11  25
BRANCH   1  29
ATOM     29  C6  <0> d   1      -3.650   5.152  -0.288  0.00  0.00    -0.019 A 
ATOM     30  C1  <0> d   1      -4.575   4.726  -1.239  0.00  0.00     0.014 A 
ATOM     31  C2  <0> d   1      -5.732   5.448  -1.445  0.00  0.00     0.024 A 
ATOM     32  C3  <0> d   1      -5.970   6.601  -0.716  0.00  0.00     0.034 A 
ATOM     33  C4  <0> d   1      -5.052   7.031   0.227  0.00  0.00     0.024 A 
ATOM     34 Cl1  <0> d   1      -7.426   7.509  -0.984  0.00  0.00    -0.084 Cl
ATOM     35  C5  <0> d   1      -3.894   6.313   0.444  0.00  0.00     0.014 A 
ENDBRANCH   1  29
TORSDOF 7
