REMARK  3 active torsions:
REMARK  status: ('A' for Active; 'I' for Inactive)
REMARK    1  A    between atoms: C2_2  and  N1_3 
REMARK    2  A    between atoms: N2_6  and  C7_9 
REMARK    3  A    between atoms: C7_9  and  C8_10 
ROOT
ATOM      1  C8  <0> d   1      -4.908  -4.112  -0.919  0.00  0.00    -0.011 A 
ATOM      2  C9  <0> d   1      -4.994  -4.816   0.238  0.00  0.00     0.092 A 
ATOM      3  C10 <0> d   1      -4.973  -6.228   0.203  0.00  0.00     0.288 A 
ATOM      4  O1  <0> d   1      -5.052  -6.848   1.247  0.00  0.00    -0.260 OA
ATOM      5  O2  <0> d   1      -4.870  -6.902  -0.953  0.00  0.00    -0.275 OA
ATOM      6  C11 <0> d   1      -4.780  -6.262  -2.138  0.00  0.00     0.090 A 
ATOM      7  C12 <0> d   1      -4.800  -4.856  -2.177  0.00  0.00     0.007 A 
ATOM      8  C13 <0> d   1      -4.713  -4.191  -3.403  0.00  0.00     0.021 A 
ATOM      9  C14 <0> d   1      -4.612  -4.920  -4.567  0.00  0.00    -0.061 A 
ATOM     10  C15 <0> d   1      -4.598  -6.306  -4.527  0.00  0.00     0.009 A 
ATOM     11  C16 <0> d   1      -4.673  -6.976  -3.324  0.00  0.00     0.039 A 
ATOM     12  C17 <0> d   1      -4.518  -4.207  -5.892  0.00  0.00     0.048 C 
ENDROOT
BRANCH   1  13
ATOM     13  C7  <0> d   1      -4.928  -2.605  -0.910  0.00  0.00     0.312 C 
BRANCH  13  14
ATOM     14  N2  <0> d   1      -3.550  -2.096  -0.921  0.00  0.00     0.096 N 
ATOM     15  C4  <0> d   1      -3.526  -0.645  -1.151  0.00  0.00     0.303 C 
ATOM     16  C3  <0> d   1      -2.074  -0.169  -1.234  0.00  0.00     0.302 C 
ATOM     17  N1  <0> d   1      -1.376  -0.512   0.012  0.00  0.00     0.091 N 
ATOM     18  C6  <0> d   1      -1.400  -1.964   0.243  0.00  0.00     0.302 C 
ATOM     19  C5  <0> d   1      -2.852  -2.440   0.326  0.00  0.00     0.303 C 
BRANCH  17  20
ATOM     20  C2  <0> d   1       0.002  -0.004   0.002  0.00  0.00     0.268 C 
ATOM     21  C1  <0> d   1      -0.019   1.526   0.010  0.00  0.00     0.037 C 
ENDBRANCH  17  20
ENDBRANCH  13  14
ENDBRANCH   1  13
TORSDOF 3
