REMARK  5 active torsions:
REMARK  status: ('A' for Active; 'I' for Inactive)
REMARK    1  A    between atoms: C2_2  and  O1_3 
REMARK    2  A    between atoms: O1_3  and  C3_4 
REMARK    3  A    between atoms: C6_7  and  C9_10 
REMARK    4  A    between atoms: C16_18  and  C18_21 
REMARK    5  A    between atoms: C18_21  and  N1_22 
ROOT
ATOM      1  C9  <0> d   1       1.949  -1.608  -0.026  0.00  0.00     0.053 C 
ATOM      2  C10 <0> d   1       1.428  -0.354  -0.037  0.00  0.00     0.127 A 
ATOM      3  C11 <0> d   1      -0.001  -0.007  -0.027  0.00  0.00     0.218 A 
ATOM      4  O2  <0> d   1      -0.953  -0.768  -0.005  0.00  0.00    -0.284 OA
ATOM      5  C12 <0> d   1      -0.023   1.467  -0.048  0.00  0.00     0.051 A 
ATOM      6  C13 <0> d   1      -1.056   2.406  -0.045  0.00  0.00     0.021 A 
ATOM      7  C14 <0> d   1      -0.763   3.740  -0.071  0.00  0.00     0.041 A 
ATOM      8  C15 <0> d   1       0.563   4.164  -0.091  0.00  0.00     0.118 A 
ATOM      9  C16 <0> d   1       1.598   3.244  -0.090  0.00  0.00     0.041 A 
ATOM     10  C17 <0> d   1       1.317   1.883  -0.068  0.00  0.00     0.101 A 
ATOM     11  O3  <0> d   1       2.130   0.803  -0.061  0.00  0.00    -0.305 OA
ATOM     12  O5  <0> d   1       0.844   5.492  -0.113  0.00  0.00    -0.191 OA
ENDROOT
BRANCH   1  13
ATOM     13  C6  <0> d   1       3.398  -1.802  -0.151  0.00  0.00    -0.033 A 
ATOM     14  C5  <0> d   1       4.258  -0.695  -0.153  0.00  0.00     0.014 A 
ATOM     15  C4  <0> d   1       5.616  -0.883  -0.272  0.00  0.00     0.037 A 
ATOM     16  C3  <0> d   1       6.136  -2.167  -0.389  0.00  0.00     0.068 A 
ATOM     17  C8  <0> d   1       5.287  -3.269  -0.387  0.00  0.00     0.037 A 
ATOM     18  C7  <0> d   1       3.928  -3.094  -0.264  0.00  0.00     0.014 A 
BRANCH  16  19
ATOM     19  O1  <0> d   1       7.476  -2.346  -0.506  0.00  0.00    -0.352 OA
BRANCH  19  20
ATOM     20  C2  <0> d   1       7.943  -3.692  -0.623  0.00  0.00     0.171 C 
ATOM     21  C1  <0> d   1       9.468  -3.693  -0.743  0.00  0.00     0.034 C 
ENDBRANCH  19  20
ENDBRANCH  16  19
ENDBRANCH   1  13
BRANCH   9  22
ATOM     22  C18 <0> d   1       3.029   3.717  -0.113  0.00  0.00     0.317 C 
BRANCH  22  23
ATOM     23  N1  <0> d   1       3.478   3.852  -1.505  0.00  0.00     0.097 N 
ATOM     24  C22 <0> d   1       4.779   4.534  -1.575  0.00  0.00     0.299 C 
ATOM     25  C21 <0> d   1       5.180   4.706  -3.042  0.00  0.00     0.198 C 
ATOM     26  O4  <0> d   1       5.205   3.426  -3.678  0.00  0.00    -0.388 OA
ATOM     27  C20 <0> d   1       3.954   2.734  -3.629  0.00  0.00     0.198 C 
ATOM     28  C19 <0> d   1       3.540   2.542  -2.167  0.00  0.00     0.299 C 
ENDBRANCH  22  23
ENDBRANCH   9  22
TORSDOF 5
