REMARK  11 active torsions:
REMARK  status: ('A' for Active; 'I' for Inactive)
REMARK    1  A    between atoms: C2_2  and  C3_3 
REMARK    2  A    between atoms: C3_3  and  O1_4 
REMARK    3  A    between atoms: O1_4  and  C4_5 
REMARK    4  A    between atoms: C4_5  and  C5_7 
REMARK    5  A    between atoms: C8_10  and  O3_13 
REMARK    6  A    between atoms: O3_13  and  C11_14 
REMARK    7  A    between atoms: C13_19  and  C14_20 
REMARK    8  A    between atoms: C17_23  and  O5_27 
REMARK    9  A    between atoms: O5_27  and  C20_28 
REMARK   10  A    between atoms: C20_28  and  C21_29 
REMARK       I    between atoms: C21_29  and  N3_31 
REMARK   11  A    between atoms: N3_31  and  N4_32 
ROOT
ATOM      1  C11 <0> d   1       2.083  -8.677  -3.722  0.00  0.00     0.124 A 
ATOM      2  C12 <0> d   1       2.658  -8.012  -4.753  0.00  0.00     0.149 A 
ATOM      3  N1  <0> d   1       3.053  -8.932  -5.672  0.00  0.00    -0.286 N 
ATOM      4  H1  <0> d   1       3.496  -8.742  -6.514  0.00  0.00     0.188 HD
ATOM      5  N2  <0> d   1       2.710 -10.202  -5.191  0.00  0.00    -0.172 NA
ATOM      6  C13 <0> d   1       2.131 -10.056  -4.018  0.00  0.00     0.125 A 
ENDROOT
BRANCH   6   7
ATOM      7  C14 <0> d   1       1.617 -11.149  -3.158  0.00  0.00     0.034 A 
ATOM      8  C19 <0> d   1       1.730 -12.480  -3.573  0.00  0.00     0.122 A 
ATOM      9  C18 <0> d   1       1.253 -13.497  -2.763  0.00  0.00     0.077 A 
ATOM     10  O4  <0> d   1       2.312 -12.774  -4.765  0.00  0.00    -0.191 OA
ATOM     11  C17 <0> d   1       0.655 -13.194  -1.549  0.00  0.00     0.072 A 
ATOM     12  C16 <0> d   1       0.538 -11.872  -1.139  0.00  0.00     0.038 A 
ATOM     13  C15 <0> d   1       1.016 -10.854  -1.936  0.00  0.00     0.020 A 
BRANCH  11  14
ATOM     14  O5  <0> d   1       0.183 -14.193  -0.758  0.00  0.00    -0.342 OA
BRANCH  14  15
ATOM     15  C20 <0> d   1       0.336 -15.530  -1.241  0.00  0.00     0.279 C 
BRANCH  15  16
ATOM     16  C21 <0> d   1      -0.242 -16.495  -0.238  0.00  0.00     0.255 C 
ATOM     17  O6  <0> d   1      -0.736 -16.080   0.788  0.00  0.00    -0.270 OA
ATOM     18  N3  <0> d   1      -0.209 -17.820  -0.483  0.00  0.00    -0.292 N 
ATOM     19  H19 <0> d   1       0.186 -18.152  -1.304  0.00  0.00     0.183 HD
BRANCH  18  20
ATOM     20  N4  <0> d   1      -0.733 -18.695   0.426  0.00  0.00    -0.247 NA
ATOM     21  H20 <0> d   1      -1.698 -18.476   0.625  0.00  0.00     0.143 HD
ATOM     22  H21 <0> d   1      -0.637 -19.648   0.107  0.00  0.00     0.143 HD
ENDBRANCH  18  20
ENDBRANCH  15  16
ENDBRANCH  14  15
ENDBRANCH  11  14
ENDBRANCH   6   7
BRANCH   1  23
ATOM     23  O3  <0> d   1       1.556  -8.115  -2.599  0.00  0.00    -0.307 OA
BRANCH  23  24
ATOM     24  C8  <0> d   1       1.488  -6.761  -2.537  0.00  0.00     0.076 A 
ATOM     25  C7  <0> d   1       0.597  -6.073  -3.353  0.00  0.00     0.038 A 
ATOM     26  C6  <0> d   1       0.524  -4.700  -3.292  0.00  0.00     0.020 A 
ATOM     27  C5  <0> d   1       1.348  -3.997  -2.407  0.00  0.00     0.039 A 
ATOM     28  C10 <0> d   1       2.246  -4.692  -1.591  0.00  0.00     0.020 A 
ATOM     29  C9  <0> d   1       2.308  -6.066  -1.655  0.00  0.00     0.038 A 
BRANCH  27  30
ATOM     30  C4  <0> d   1       1.273  -2.526  -2.338  0.00  0.00     0.293 C 
ATOM     31  O2  <0> d   1       1.993  -1.916  -1.572  0.00  0.00    -0.259 OA
BRANCH  30  32
ATOM     32  O1  <0> d   1       0.407  -1.858  -3.125  0.00  0.00    -0.318 OA
BRANCH  32  33
ATOM     33  C3  <0> d   1       0.388  -0.434  -3.006  0.00  0.00     0.178 C 
BRANCH  33  34
ATOM     34  C2  <0> d   1      -0.650   0.145  -3.969  0.00  0.00     0.022 C 
ATOM     35  C1  <0> d   1      -0.670   1.670  -3.842  0.00  0.00     0.007 C 
ENDBRANCH  33  34
ENDBRANCH  32  33
ENDBRANCH  30  32
ENDBRANCH  27  30
ENDBRANCH  23  24
ENDBRANCH   1  23
TORSDOF 11
