REMARK  5 active torsions:
REMARK  status: ('A' for Active; 'I' for Inactive)
REMARK    1  A    between atoms: C7_7  and  O1_8 
REMARK    2  A    between atoms: C8_9  and  C11_14 
REMARK    3  A    between atoms: C11_14  and  N1_15 
REMARK    4  A    between atoms: N2_18  and  C16_21 
REMARK    5  A    between atoms: C16_21  and  C17_22 
ROOT
ATOM      1  C1  <0> d   1      -0.018   1.503   0.010  0.00  0.00     0.051 C 
ATOM      2  C2  <0> d   1       0.002  -0.004   0.002  0.00  0.00    -0.026 A 
ATOM      3  C3  <0> d   1       0.006  -0.680  -1.199  0.00  0.00     0.047 A 
ATOM      4  C4  <0> d   1       0.025  -2.069  -1.216  0.00  0.00     0.091 A 
ATOM      5  C5  <0> d   1       0.041  -2.776  -0.000  0.00  0.00     0.009 A 
ATOM      6  C6  <0> d   1       0.036  -2.081   1.213  0.00  0.00     0.052 A 
ATOM      7  C7  <0> d   1       0.023  -0.700   1.207  0.00  0.00     0.072 A 
ATOM      8  C8  <0> d   1       0.061  -4.242  -0.030  0.00  0.00    -0.011 A 
ATOM      9  C9  <0> d   1       0.063  -4.858  -1.240  0.00  0.00     0.092 A 
ATOM     10  C10 <0> d   1       0.047  -4.085  -2.421  0.00  0.00     0.288 A 
ATOM     11  O2  <0> d   1       0.049  -4.650  -3.499  0.00  0.00    -0.260 OA
ATOM     12  O3  <0> d   1       0.028  -2.744  -2.386  0.00  0.00    -0.275 OA
ENDROOT
BRANCH   8  13
ATOM     13  C11 <0> d   1       0.079  -5.042   1.246  0.00  0.00     0.312 C 
BRANCH  13  14
ATOM     14  N1  <0> d   1       1.463  -5.181   1.718  0.00  0.00     0.096 N 
ATOM     15  C15 <0> d   1       1.503  -5.745   3.074  0.00  0.00     0.303 C 
ATOM     16  C14 <0> d   1       2.954  -5.799   3.559  0.00  0.00     0.303 C 
ATOM     17  N2  <0> d   1       3.748  -6.614   2.628  0.00  0.00     0.096 N 
ATOM     18  C13 <0> d   1       3.708  -6.049   1.272  0.00  0.00     0.303 C 
ATOM     19  C12 <0> d   1       2.257  -5.995   0.788  0.00  0.00     0.303 C 
BRANCH  17  20
ATOM     20  C16 <0> d   1       5.133  -6.752   3.100  0.00  0.00     0.311 C 
BRANCH  20  21
ATOM     21  C17 <0> d   1       5.150  -7.553   4.377  0.00  0.00    -0.030 A 
ATOM     22  C22 <0> d   1       5.274  -8.929   4.328  0.00  0.00     0.009 A 
ATOM     23  C21 <0> d   1       5.294  -9.662   5.500  0.00  0.00     0.001 A 
ATOM     24  C20 <0> d   1       5.183  -9.021   6.719  0.00  0.00     0.000 A 
ATOM     25  C19 <0> d   1       5.054  -7.645   6.767  0.00  0.00     0.001 A 
ATOM     26  C18 <0> d   1       5.038  -6.911   5.596  0.00  0.00     0.009 A 
ENDBRANCH  20  21
ENDBRANCH  17  20
ENDBRANCH  13  14
ENDBRANCH   8  13
BRANCH   7  27
ATOM     27  O1  <0> d   1       0.025  -0.018   2.383  0.00  0.00    -0.360 OA
ATOM     28  H6  <0> d   1      -0.858   0.168   2.732  0.00  0.00     0.217 HD
ENDBRANCH   7  27
TORSDOF 5
