REMARK  6 active torsions:
REMARK  status: ('A' for Active; 'I' for Inactive)
REMARK    1  A    between atoms: C3_3  and  C18_24 
REMARK    2  A    between atoms: C9_10  and  C11_13 
REMARK    3  A    between atoms: C11_13  and  N1_14 
REMARK    4  A    between atoms: N2_17  and  C16_20 
REMARK    5  A    between atoms: C16_20  and  C17_21 
REMARK    6  A    between atoms: C17_21  and  O3_22 
ROOT
ATOM      1  C1  <0> d   1      -3.921   2.227  -0.084  0.00  0.00     0.077 C 
ATOM      2  C2  <0> d   1      -2.551   2.854  -0.049  0.00  0.00     0.065 A 
ATOM      3  C3  <0> d   1      -2.454   4.208  -0.034  0.00  0.00     0.054 A 
ATOM      4  C4  <0> d   1      -1.115   4.821   0.001  0.00  0.00     0.198 A 
ATOM      5  O1  <0> d   1      -0.966   6.031   0.016  0.00  0.00    -0.286 OA
ATOM      6  C5  <0> d   1       0.036   3.900   0.017  0.00  0.00     0.050 A 
ATOM      7  C6  <0> d   1       1.346   4.380   0.050  0.00  0.00     0.021 A 
ATOM      8  C7  <0> d   1       2.390   3.499   0.064  0.00  0.00     0.041 A 
ATOM      9  C8  <0> d   1       2.152   2.127   0.046  0.00  0.00     0.118 A 
ATOM     10  C9  <0> d   1       0.858   1.636   0.013  0.00  0.00     0.039 A 
ATOM     11  C10 <0> d   1      -0.214   2.517  -0.008  0.00  0.00     0.100 A 
ATOM     12  O2  <0> d   1      -1.481   2.056  -0.033  0.00  0.00    -0.313 OA
ATOM     13  O4  <0> d   1       3.199   1.262   0.061  0.00  0.00    -0.191 OA
ENDROOT
BRANCH  10  14
ATOM     14  C11 <0> d   1       0.615   0.149  -0.006  0.00  0.00     0.279 C 
BRANCH  14  15
ATOM     15  N1  <0> d   1       0.505  -0.348   1.372  0.00  0.00    -0.064 N 
ATOM     16  C15 <0> d   1       0.035  -1.740   1.395  0.00  0.00     0.265 C 
ATOM     17  C14 <0> d   1      -0.141  -2.192   2.846  0.00  0.00     0.300 C 
ATOM     18  N2  <0> d   1       1.138  -2.060   3.557  0.00  0.00     0.093 N 
ATOM     19  C13 <0> d   1       1.609  -0.668   3.534  0.00  0.00     0.300 C 
ATOM     20  C12 <0> d   1       1.785  -0.215   2.083  0.00  0.00     0.265 C 
ATOM     21  H25 <0> d   1      -0.239   0.271   1.895  0.00  0.00     0.280 HD
BRANCH  18  22
ATOM     22  C16 <0> d   1       1.029  -2.556   4.935  0.00  0.00     0.298 C 
BRANCH  22  23
ATOM     23  C17 <0> d   1       1.020  -4.086   4.927  0.00  0.00     0.194 C 
BRANCH  23  24
ATOM     24  O3  <0> d   1       2.275  -4.568   4.443  0.00  0.00    -0.399 OA
ATOM     25  H20 <0> d   1       2.456  -5.650   4.365  0.00  0.00     0.209 HD
ENDBRANCH  23  24
ENDBRANCH  22  23
ENDBRANCH  18  22
ENDBRANCH  14  15
ENDBRANCH  10  14
BRANCH   3  26
ATOM     26  C18 <0> d   1      -3.672   5.054  -0.052  0.00  0.00    -0.019 A 
ATOM     27  C23 <0> d   1      -3.932   5.882  -1.143  0.00  0.00     0.014 A 
ATOM     28  C22 <0> d   1      -5.067   6.667  -1.156  0.00  0.00     0.024 A 
ATOM     29  C21 <0> d   1      -5.947   6.633  -0.087  0.00  0.00     0.034 A 
ATOM     30  C20 <0> d   1      -5.692   5.813   0.999  0.00  0.00     0.024 A 
ATOM     31 Cl1  <0> d   1      -7.373   7.623  -0.109  0.00  0.00    -0.084 Cl
ATOM     32  C19 <0> d   1      -4.563   5.020   1.019  0.00  0.00     0.014 A 
ENDBRANCH   3  26
TORSDOF 6
