REMARK  7 active torsions:
REMARK  status: ('A' for Active; 'I' for Inactive)
REMARK    1  A    between atoms: C3_3  and  C6_7 
REMARK    2  A    between atoms: C12_14  and  O4_28 
REMARK    3  A    between atoms: C13_15  and  C15_18 
REMARK    4  A    between atoms: C15_18  and  N2_19 
REMARK    5  A    between atoms: N3_22  and  C20_25 
REMARK    6  A    between atoms: C20_25  and  C21_26 
REMARK    7  A    between atoms: C21_26  and  O3_27 
ROOT
ATOM      1  C6  <0> d   1       4.040   2.289   0.402  0.00  0.00     0.054 C 
ATOM      2  C7  <0> d   1       5.160   1.529   0.483  0.00  0.00     0.128 A 
ATOM      3  C8  <0> d   1       6.534   2.023   0.674  0.00  0.00     0.218 A 
ATOM      4  O1  <0> d   1       6.902   3.179   0.791  0.00  0.00    -0.284 OA
ATOM      5  C9  <0> d   1       7.364   0.805   0.693  0.00  0.00     0.051 A 
ATOM      6  C10 <0> d   1       8.735   0.587   0.838  0.00  0.00     0.021 A 
ATOM      7  C11 <0> d   1       9.228  -0.687   0.814  0.00  0.00     0.038 A 
ATOM      8  C12 <0> d   1       8.366  -1.767   0.645  0.00  0.00     0.076 A 
ATOM      9  C13 <0> d   1       7.003  -1.565   0.499  0.00  0.00     0.038 A 
ATOM     10  C14 <0> d   1       6.485  -0.276   0.522  0.00  0.00     0.101 A 
ATOM     11  O2  <0> d   1       5.218   0.179   0.409  0.00  0.00    -0.305 OA
ENDROOT
BRANCH   9  12
ATOM     12  C15 <0> d   1       6.082  -2.744   0.317  0.00  0.00     0.317 C 
BRANCH  12  13
ATOM     13  N2  <0> d   1       5.623  -3.215   1.631  0.00  0.00     0.096 N 
ATOM     14  C19 <0> d   1       4.919  -4.499   1.514  0.00  0.00     0.303 C 
ATOM     15  C18 <0> d   1       4.528  -4.993   2.909  0.00  0.00     0.302 C 
ATOM     16  N3  <0> d   1       3.679  -3.987   3.562  0.00  0.00     0.093 N 
ATOM     17  C17 <0> d   1       4.383  -2.703   3.679  0.00  0.00     0.302 C 
ATOM     18  C16 <0> d   1       4.774  -2.209   2.284  0.00  0.00     0.303 C 
BRANCH  16  19
ATOM     19  C20 <0> d   1       3.220  -4.458   4.876  0.00  0.00     0.298 C 
BRANCH  19  20
ATOM     20  C21 <0> d   1       1.993  -3.652   5.307  0.00  0.00     0.194 C 
BRANCH  20  21
ATOM     21  O3  <0> d   1       0.917  -3.901   4.399  0.00  0.00    -0.399 OA
ATOM     22  H22 <0> d   1       0.105  -3.421   4.612  0.00  0.00     0.209 HD
ENDBRANCH  20  21
ENDBRANCH  19  20
ENDBRANCH  16  19
ENDBRANCH  12  13
ENDBRANCH   9  12
BRANCH   8  23
ATOM     23  O4  <0> d   1       8.865  -3.029   0.621  0.00  0.00    -0.360 OA
ATOM     24  H23 <0> d   1       8.909  -3.451   1.490  0.00  0.00     0.217 HD
ENDBRANCH   8  23
BRANCH   1  25
ATOM     25  C3  <0> d   1       2.720   1.646   0.327  0.00  0.00    -0.016 A 
ATOM     26  C2  <0> d   1       2.610   0.252   0.212  0.00  0.00     0.014 A 
ATOM     27  C1  <0> d   1       1.344  -0.302   0.145  0.00  0.00     0.020 A 
ATOM     28  C5  <0> d   1       0.238   0.527   0.193  0.00  0.00     0.116 A 
ATOM     29  N1  <0> d   1       0.369   1.836   0.301  0.00  0.00    -0.272 NA
ATOM     30  C4  <0> d   1       1.550   2.414   0.368  0.00  0.00     0.127 A 
ENDBRANCH   1  25
TORSDOF 7
