REMARK  3 active torsions:
REMARK  status: ('A' for Active; 'I' for Inactive)
REMARK    1  A    between atoms: C9_10  and  C10_11 
REMARK    2  A    between atoms: C14_15  and  O3_19 
REMARK    3  A    between atoms: C15_16  and  O2_17 
ROOT
ATOM      1  C1  <0> d   1       0.543   6.629  -0.175  0.00  0.00     0.054 C 
ATOM      2  C2  <0> d   1       2.042   6.757  -0.262  0.00  0.00     0.009 A 
ATOM      3  C3  <0> d   1       2.625   8.008  -0.381  0.00  0.00     0.116 A 
ATOM      4  C4  <0> d   1       4.009   8.140  -0.463  0.00  0.00     0.041 A 
ATOM      5  C5  <0> d   1       4.807   7.031  -0.426  0.00  0.00     0.021 A 
ATOM      6  C6  <0> d   1       4.234   5.765  -0.306  0.00  0.00     0.051 A 
ATOM      7  C7  <0> d   1       2.840   5.620  -0.223  0.00  0.00     0.099 A 
ATOM      8  O1  <0> d   1       2.524   4.311  -0.113  0.00  0.00    -0.305 OA
ATOM      9  C8  <0> d   1       3.627   3.525  -0.115  0.00  0.00     0.128 A 
ATOM     10  C9  <0> d   1       3.647   2.171  -0.020  0.00  0.00     0.055 C 
ATOM     11  C18 <0> d   1       4.798   4.405  -0.233  0.00  0.00     0.218 A 
ATOM     12  O4  <0> d   1       5.973   4.083  -0.264  0.00  0.00    -0.284 OA
ATOM     13  O5  <0> d   1       1.841   9.115  -0.418  0.00  0.00    -0.192 OA
ENDROOT
BRANCH  10  14
ATOM     14  C10 <0> d   1       2.391   1.414  -0.061  0.00  0.00     0.003 A 
ATOM     15  C15 <0> d   1       2.406   0.035  -0.321  0.00  0.00     0.111 A 
ATOM     16  C14 <0> d   1       1.209  -0.671  -0.357  0.00  0.00     0.102 A 
ATOM     17  C13 <0> d   1       0.010  -0.014  -0.137  0.00  0.00     0.040 A 
ATOM     18  C12 <0> d   1      -0.007   1.348   0.119  0.00  0.00     0.004 A 
ATOM     19  C11 <0> d   1       1.169   2.063   0.159  0.00  0.00     0.014 A 
BRANCH  15  20
ATOM     20  O2  <0> d   1       3.584  -0.607  -0.535  0.00  0.00    -0.352 OA
ATOM     21  C16 <0> d   1       4.047  -0.680  -1.885  0.00  0.00     0.210 C 
ENDBRANCH  15  20
BRANCH  16  22
ATOM     22  O3  <0> d   1       1.216  -2.008  -0.608  0.00  0.00    -0.353 OA
ATOM     23  C17 <0> d   1      -0.051  -2.670  -0.630  0.00  0.00     0.210 C 
ENDBRANCH  16  22
ENDBRANCH  10  14
TORSDOF 3
