REMARK  7 active torsions:
REMARK  status: ('A' for Active; 'I' for Inactive)
REMARK    1  A    between atoms: C2_2  and  N1_3 
REMARK    2  A    between atoms: N2_6  and  C7_9 
REMARK    3  A    between atoms: C7_9  and  C8_10 
REMARK    4  A    between atoms: C9_11  and  O4_31 
REMARK    5  A    between atoms: C15_18  and  C16_19 
REMARK    6  A    between atoms: C17_20  and  C18_21 
REMARK    7  A    between atoms: C23_26  and  O2_27 
ROOT
ATOM      1  C8  <0> d   1       3.317  -3.984  -3.871  0.00  0.00     0.038 A 
ATOM      2  C9  <0> d   1       4.368  -4.667  -3.280  0.00  0.00     0.076 A 
ATOM      3  C10 <0> d   1       4.398  -6.059  -3.282  0.00  0.00     0.038 A 
ATOM      4  C11 <0> d   1       3.388  -6.768  -3.868  0.00  0.00     0.021 A 
ATOM      5  C12 <0> d   1       2.323  -6.094  -4.467  0.00  0.00     0.051 A 
ATOM      6  C13 <0> d   1       2.280  -4.689  -4.465  0.00  0.00     0.101 A 
ATOM      7  O1  <0> d   1       1.155  -4.288  -5.095  0.00  0.00    -0.305 OA
ATOM      8  C14 <0> d   1       0.424  -5.343  -5.522  0.00  0.00     0.127 A 
ATOM      9  C15 <0> d   1      -0.765  -5.271  -6.192  0.00  0.00     0.041 C 
ATOM     10  C25 <0> d   1       1.106  -6.538  -5.168  0.00  0.00     0.218 A 
ATOM     11  O3  <0> d   1       0.754  -7.686  -5.385  0.00  0.00    -0.284 OA
ENDROOT
BRANCH   9  12
ATOM     12  C16 <0> d   1      -1.328  -4.018  -6.493  0.00  0.00     0.004 C 
ATOM     13  C17 <0> d   1      -2.508  -3.946  -7.159  0.00  0.00     0.014 C 
BRANCH  13  14
ATOM     14  C18 <0> d   1      -3.095  -2.639  -7.473  0.00  0.00    -0.003 A 
ATOM     15  C23 <0> d   1      -4.317  -2.559  -8.162  0.00  0.00     0.078 A 
ATOM     16  C22 <0> d   1      -4.864  -1.319  -8.447  0.00  0.00     0.037 A 
ATOM     17  C21 <0> d   1      -4.205  -0.166  -8.066  0.00  0.00     0.003 A 
ATOM     18  C20 <0> d   1      -2.997  -0.238  -7.391  0.00  0.00     0.001 A 
ATOM     19  C19 <0> d   1      -2.439  -1.462  -7.093  0.00  0.00     0.014 A 
BRANCH  15  20
ATOM     20  O2  <0> d   1      -4.961  -3.692  -8.541  0.00  0.00    -0.355 OA
ATOM     21  C24 <0> d   1      -6.198  -3.533  -9.238  0.00  0.00     0.210 C 
ENDBRANCH  15  20
ENDBRANCH  13  14
ENDBRANCH   9  12
BRANCH   1  22
ATOM     22  C7  <0> d   1       3.296  -2.477  -3.863  0.00  0.00     0.317 C 
BRANCH  22  23
ATOM     23  N2  <0> d   1       2.609  -2.003  -2.654  0.00  0.00     0.096 N 
ATOM     24  C4  <0> d   1       2.774  -0.552  -2.489  0.00  0.00     0.303 C 
ATOM     25  C3  <0> d   1       2.113  -0.112  -1.180  0.00  0.00     0.302 C 
ATOM     26  N1  <0> d   1       0.690  -0.478  -1.207  0.00  0.00     0.091 N 
ATOM     27  C6  <0> d   1       0.525  -1.929  -1.372  0.00  0.00     0.302 C 
ATOM     28  C5  <0> d   1       1.186  -2.369  -2.680  0.00  0.00     0.303 C 
BRANCH  26  29
ATOM     29  C2  <0> d   1       0.002  -0.004   0.002  0.00  0.00     0.268 C 
ATOM     30  C1  <0> d   1      -0.019   1.526   0.010  0.00  0.00     0.037 C 
ENDBRANCH  26  29
ENDBRANCH  22  23
ENDBRANCH   1  22
BRANCH   2  31
ATOM     31  O4  <0> d   1       5.377  -3.973  -2.694  0.00  0.00    -0.360 OA
ATOM     32  H28 <0> d   1       5.232  -3.782  -1.758  0.00  0.00     0.217 HD
ENDBRANCH   2  31
TORSDOF 7
