REMARK  8 active torsions:
REMARK  status: ('A' for Active; 'I' for Inactive)
REMARK    1  A    between atoms: C2_2  and  N1_3 
REMARK    2  A    between atoms: N2_6  and  C7_9 
REMARK    3  A    between atoms: C7_9  and  C8_10 
REMARK    4  A    between atoms: C9_11  and  O6_33 
REMARK    5  A    between atoms: C15_18  and  C16_19 
REMARK    6  A    between atoms: C19_22  and  O4_29 
REMARK    7  A    between atoms: C20_23  and  O3_27 
REMARK    8  A    between atoms: C21_24  and  O2_25 
ROOT
ATOM      1  C8  <0> d   1       0.058   0.136  -1.021  0.00  0.00     0.038 A 
ATOM      2  C9  <0> d   1       1.275  -0.503  -1.198  0.00  0.00     0.076 A 
ATOM      3  C10 <0> d   1       2.469   0.201  -1.071  0.00  0.00     0.038 A 
ATOM      4  C11 <0> d   1       2.451   1.534  -0.769  0.00  0.00     0.021 A 
ATOM      5  C12 <0> d   1       1.234   2.190  -0.588  0.00  0.00     0.051 A 
ATOM      6  C13 <0> d   1       0.022   1.490  -0.714  0.00  0.00     0.101 A 
ATOM      7  O1  <0> d   1      -1.013   2.331  -0.502  0.00  0.00    -0.305 OA
ATOM      8  C14 <0> d   1      -0.591   3.588  -0.223  0.00  0.00     0.128 A 
ATOM      9  C15 <0> d   1      -1.383   4.661   0.040  0.00  0.00     0.055 C 
ATOM     10  C25 <0> d   1       0.876   3.583  -0.264  0.00  0.00     0.218 A 
ATOM     11  O5  <0> d   1       1.631   4.521  -0.073  0.00  0.00    -0.284 OA
ENDROOT
BRANCH   9  12
ATOM     12  C16 <0> d   1      -2.840   4.537  -0.057  0.00  0.00     0.003 A 
ATOM     13  C21 <0> d   1      -3.642   5.688  -0.144  0.00  0.00     0.114 A 
ATOM     14  C20 <0> d   1      -5.020   5.560  -0.241  0.00  0.00     0.136 A 
ATOM     15  C19 <0> d   1      -5.602   4.297  -0.241  0.00  0.00     0.104 A 
ATOM     16  C18 <0> d   1      -4.809   3.158  -0.149  0.00  0.00     0.040 A 
ATOM     17  C17 <0> d   1      -3.441   3.270  -0.059  0.00  0.00     0.017 A 
BRANCH  13  18
ATOM     18  O2  <0> d   1      -3.070   6.920  -0.139  0.00  0.00    -0.352 OA
ATOM     19  C22 <0> d   1      -2.710   7.473  -1.406  0.00  0.00     0.210 C 
ENDBRANCH  13  18
BRANCH  14  20
ATOM     20  O3  <0> d   1      -5.802   6.670  -0.330  0.00  0.00    -0.351 OA
ATOM     21  C23 <0> d   1      -6.262   7.240   0.897  0.00  0.00     0.210 C 
ENDBRANCH  14  20
BRANCH  15  22
ATOM     22  O4  <0> d   1      -6.952   4.175  -0.331  0.00  0.00    -0.353 OA
ATOM     23  C24 <0> d   1      -7.486   2.849  -0.326  0.00  0.00     0.210 C 
ENDBRANCH  15  22
ENDBRANCH   9  12
BRANCH   1  24
ATOM     24  C7  <0> d   1      -1.227  -0.639  -1.162  0.00  0.00     0.317 C 
BRANCH  24  25
ATOM     25  N2  <0> d   1      -1.680  -0.586  -2.558  0.00  0.00     0.096 N 
ATOM     26  C4  <0> d   1      -2.793  -1.518  -2.787  0.00  0.00     0.303 C 
ATOM     27  C3  <0> d   1      -3.182  -1.491  -4.267  0.00  0.00     0.302 C 
ATOM     28  N1  <0> d   1      -3.559  -0.122  -4.646  0.00  0.00     0.091 N 
ATOM     29  C6  <0> d   1      -2.447   0.810  -4.417  0.00  0.00     0.302 C 
ATOM     30  C5  <0> d   1      -2.058   0.783  -2.937  0.00  0.00     0.303 C 
BRANCH  28  31
ATOM     31  C2  <0> d   1      -4.013  -0.069  -6.042  0.00  0.00     0.268 C 
ATOM     32  C1  <0> d   1      -4.628   1.303  -6.327  0.00  0.00     0.037 C 
ENDBRANCH  28  31
ENDBRANCH  24  25
ENDBRANCH   1  24
BRANCH   2  33
ATOM     33  O6  <0> d   1       1.303  -1.827  -1.497  0.00  0.00    -0.360 OA
ATOM     34  H30 <0> d   1       2.267  -2.338  -1.639  0.00  0.00     0.217 HD
ENDBRANCH   2  33
TORSDOF 8
