REMARK  4 active torsions:
REMARK  status: ('A' for Active; 'I' for Inactive)
REMARK    1  A    between atoms: C2_2  and  N1_3 
REMARK    2  A    between atoms: N2_6  and  C7_9 
REMARK    3  A    between atoms: C7_9  and  C8_10 
REMARK    4  A    between atoms: C15_19  and  O3_21 
ROOT
ATOM      1  C8  <0> d   1      -1.263   5.086  -2.464  0.00  0.00    -0.014 A 
ATOM      2  C9  <0> d   1      -2.265   5.924  -2.090  0.00  0.00     0.092 A 
ATOM      3  C10 <0> d   1      -2.068   7.319  -2.142  0.00  0.00     0.288 A 
ATOM      4  O1  <0> d   1      -2.973   8.059  -1.799  0.00  0.00    -0.260 OA
ATOM      5  O2  <0> d   1      -0.912   7.853  -2.564  0.00  0.00    -0.275 OA
ATOM      6  C11 <0> d   1       0.121   7.077  -2.956  0.00  0.00     0.093 A 
ATOM      7  C12 <0> d   1      -0.004   5.676  -2.924  0.00  0.00     0.008 A 
ATOM      8  C13 <0> d   1       1.064   4.867  -3.329  0.00  0.00     0.041 A 
ATOM      9  C14 <0> d   1       2.228   5.443  -3.755  0.00  0.00     0.068 A 
ATOM     10  C15 <0> d   1       2.357   6.831  -3.788  0.00  0.00     0.090 A 
ATOM     11  C16 <0> d   1       1.309   7.645  -3.391  0.00  0.00     0.076 A 
ATOM     12 Cl1  <0> d   1       3.553   4.441  -4.258  0.00  0.00    -0.081 Cl
ENDROOT
BRANCH   1  13
ATOM     13  C7  <0> d   1      -1.445   3.591  -2.413  0.00  0.00     0.274 C 
BRANCH  13  14
ATOM     14  N2  <0> d   1      -0.806   3.062  -1.200  0.00  0.00    -0.064 N 
ATOM     15  C4  <0> d   1      -0.754   1.593  -1.231  0.00  0.00     0.265 C 
ATOM     16  C3  <0> d   1      -0.013   1.086   0.008  0.00  0.00     0.300 C 
ATOM     17  N1  <0> d   1      -0.701   1.560   1.216  0.00  0.00     0.091 N 
ATOM     18  C6  <0> d   1      -0.754   3.029   1.247  0.00  0.00     0.300 C 
ATOM     19  C5  <0> d   1      -1.495   3.536   0.008  0.00  0.00     0.265 C 
ATOM     20  H19 <0> d   1       0.227   3.438  -1.172  0.00  0.00     0.280 HD
BRANCH  17  21
ATOM     21  C2  <0> d   1      -0.062   1.031   2.429  0.00  0.00     0.268 C 
ATOM     22  C1  <0> d   1      -0.640   1.734   3.658  0.00  0.00     0.037 C 
ENDBRANCH  17  21
ENDBRANCH  13  14
ENDBRANCH   1  13
BRANCH  10  23
ATOM     23  O3  <0> d   1       3.520   7.389  -4.213  0.00  0.00    -0.359 OA
ATOM     24  H20 <0> d   1       3.627   8.483  -4.240  0.00  0.00     0.217 HD
ENDBRANCH  10  23
TORSDOF 4
