REMARK  9 active torsions:
REMARK  status: ('A' for Active; 'I' for Inactive)
REMARK    1  A    between atoms: O1_2  and  C2_3 
REMARK    2  A    between atoms: C5_6  and  C9_11 
REMARK    3  A    between atoms: C7_8  and  O2_9 
REMARK    4  A    between atoms: C14_16  and  O6_32 
REMARK    5  A    between atoms: C15_17  and  C18_22 
REMARK    6  A    between atoms: C18_22  and  N1_23 
REMARK    7  A    between atoms: N2_26  and  C23_29 
REMARK    8  A    between atoms: C23_29  and  C24_30 
REMARK    9  A    between atoms: C24_30  and  O5_31 
ROOT
ATOM      1  C9  <0> d   1       2.580  -2.538   4.299  0.00  0.00     0.051 C 
ATOM      2  C10 <0> d   1       2.093  -2.439   5.578  0.00  0.00     0.032 C 
ATOM      3  C11 <0> d   1       2.813  -3.075   6.623  0.00  0.00    -0.000 A 
ATOM      4  C12 <0> d   1       2.261  -3.178   7.908  0.00  0.00     0.017 A 
ATOM      5  C13 <0> d   1       2.947  -3.827   8.892  0.00  0.00     0.038 A 
ATOM      6  C14 <0> d   1       4.199  -4.384   8.633  0.00  0.00     0.076 A 
ATOM      7  C15 <0> d   1       4.769  -4.277   7.375  0.00  0.00     0.038 A 
ATOM      8  C16 <0> d   1       4.088  -3.614   6.366  0.00  0.00     0.100 A 
ATOM      9  O3  <0> d   1       4.651  -3.465   5.141  0.00  0.00    -0.273 OA
ATOM     10  C17 <0> d   1       3.801  -3.335   4.094  0.00  0.00     0.299 C 
ATOM     11  O4  <0> d   1       4.039  -3.855   3.019  0.00  0.00    -0.259 OA
ENDROOT
BRANCH   7  12
ATOM     12  C18 <0> d   1       6.124  -4.878   7.105  0.00  0.00     0.317 C 
BRANCH  12  13
ATOM     13  N1  <0> d   1       5.962  -6.263   6.643  0.00  0.00     0.096 N 
ATOM     14  C22 <0> d   1       7.234  -6.804   6.145  0.00  0.00     0.303 C 
ATOM     15  C21 <0> d   1       7.007  -8.216   5.601  0.00  0.00     0.302 C 
ATOM     16  N2  <0> d   1       6.457  -9.066   6.666  0.00  0.00     0.093 N 
ATOM     17  C20 <0> d   1       5.184  -8.525   7.164  0.00  0.00     0.302 C 
ATOM     18  C19 <0> d   1       5.412  -7.112   7.708  0.00  0.00     0.303 C 
BRANCH  16  19
ATOM     19  C23 <0> d   1       6.295 -10.451   6.204  0.00  0.00     0.298 C 
BRANCH  19  20
ATOM     20  C24 <0> d   1       7.671 -11.061   5.929  0.00  0.00     0.194 C 
BRANCH  20  21
ATOM     21  O5  <0> d   1       8.403 -11.155   7.153  0.00  0.00    -0.399 OA
ATOM     22  H27 <0> d   1       9.287 -11.534   7.054  0.00  0.00     0.209 HD
ENDBRANCH  20  21
ENDBRANCH  19  20
ENDBRANCH  16  19
ENDBRANCH  12  13
ENDBRANCH   7  12
BRANCH   6  23
ATOM     23  O6  <0> d   1       4.864  -5.036   9.621  0.00  0.00    -0.360 OA
ATOM     24  H28 <0> d   1       4.670  -5.982   9.668  0.00  0.00     0.217 HD
ENDBRANCH   6  23
BRANCH   1  25
ATOM     25  C5  <0> d   1       1.899  -1.872   3.164  0.00  0.00    -0.017 A 
ATOM     26  C4  <0> d   1       1.835  -0.479   3.108  0.00  0.00     0.015 A 
ATOM     27  C3  <0> d   1       1.202   0.140   2.050  0.00  0.00     0.040 A 
ATOM     28  C2  <0> d   1       0.626  -0.619   1.042  0.00  0.00     0.101 A 
ATOM     29  C7  <0> d   1       0.681  -2.009   1.096  0.00  0.00     0.102 A 
ATOM     30  C6  <0> d   1       1.321  -2.635   2.151  0.00  0.00     0.052 A 
BRANCH  28  31
ATOM     31  O1  <0> d   1       0.002  -0.004   0.002  0.00  0.00    -0.353 OA
ATOM     32  C1  <0> d   1      -0.017   1.425   0.010  0.00  0.00     0.210 C 
ENDBRANCH  28  31
BRANCH  29  33
ATOM     33  O2  <0> d   1       0.111  -2.751   0.109  0.00  0.00    -0.353 OA
ATOM     34  C8  <0> d   1       0.206  -4.172   0.229  0.00  0.00     0.210 C 
ENDBRANCH  29  33
ENDBRANCH   1  25
TORSDOF 9
