REMARK  8 active torsions:
REMARK  status: ('A' for Active; 'I' for Inactive)
REMARK    1  A    between atoms: O1_2  and  C2_3 
REMARK    2  A    between atoms: C5_6  and  C9_11 
REMARK    3  A    between atoms: C7_8  and  O2_9 
REMARK    4  A    between atoms: C9_11  and  C10_12 
REMARK    5  A    between atoms: C10_12  and  C11_14 
REMARK    6  A    between atoms: C14_17  and  O6_28 
REMARK    7  A    between atoms: C15_18  and  C17_21 
REMARK    8  A    between atoms: C17_21  and  N1_22 
ROOT
ATOM      1  C11 <0> d   1      -2.255   1.868   5.412  0.00  0.00     0.047 A 
ATOM      2  C12 <0> d   1      -1.657   3.050   5.869  0.00  0.00     0.021 A 
ATOM      3  C13 <0> d   1      -0.569   3.561   5.222  0.00  0.00     0.038 A 
ATOM      4  C14 <0> d   1      -0.043   2.911   4.108  0.00  0.00     0.076 A 
ATOM      5  C15 <0> d   1      -0.625   1.742   3.638  0.00  0.00     0.041 A 
ATOM      6  C16 <0> d   1      -1.728   1.212   4.284  0.00  0.00     0.131 A 
ATOM      7  O4  <0> d   1      -2.298   0.067   3.833  0.00  0.00    -0.190 OA
ENDROOT
BRANCH   1   8
ATOM      8  C10 <0> d   1      -3.422   1.318   6.105  0.00  0.00     0.166 C 
ATOM      9  O3  <0> d   1      -3.938   0.294   5.707  0.00  0.00    -0.292 OA
BRANCH   8  10
ATOM     10  C9  <0> d   1      -3.983   2.024   7.313  0.00  0.00     0.122 C 
BRANCH  10  11
ATOM     11  C5  <0> d   1      -5.172   1.259   7.834  0.00  0.00    -0.048 A 
ATOM     12  C4  <0> d   1      -6.440   1.553   7.367  0.00  0.00     0.010 A 
ATOM     13  C3  <0> d   1      -7.534   0.851   7.838  0.00  0.00     0.040 A 
ATOM     14  C2  <0> d   1      -7.362  -0.143   8.789  0.00  0.00     0.101 A 
ATOM     15  C7  <0> d   1      -6.087  -0.435   9.263  0.00  0.00     0.102 A 
ATOM     16  C6  <0> d   1      -4.994   0.269   8.782  0.00  0.00     0.047 A 
BRANCH  14  17
ATOM     17  O1  <0> d   1      -8.437  -0.831   9.257  0.00  0.00    -0.353 OA
ATOM     18  C1  <0> d   1      -9.716  -0.477   8.726  0.00  0.00     0.210 C 
ENDBRANCH  14  17
BRANCH  15  19
ATOM     19  O2  <0> d   1      -5.913  -1.409  10.195  0.00  0.00    -0.353 OA
ATOM     20  C8  <0> d   1      -4.576  -1.655  10.635  0.00  0.00     0.210 C 
ENDBRANCH  15  19
ENDBRANCH  10  11
ENDBRANCH   8  10
ENDBRANCH   1   8
BRANCH   5  21
ATOM     21  C17 <0> d   1      -0.053   1.047   2.430  0.00  0.00     0.317 C 
BRANCH  21  22
ATOM     22  N1  <0> d   1      -0.703   1.561   1.216  0.00  0.00     0.097 N 
ATOM     23  C21 <0> d   1      -0.769   3.029   1.235  0.00  0.00     0.299 C 
ATOM     24  C20 <0> d   1      -1.504   3.518  -0.017  0.00  0.00     0.198 C 
ATOM     25  O5  <0> d   1      -0.837   3.021  -1.180  0.00  0.00    -0.388 OA
ATOM     26  C19 <0> d   1      -0.755   1.594  -1.231  0.00  0.00     0.198 C 
ATOM     27  C18 <0> d   1      -0.013   1.086   0.008  0.00  0.00     0.299 C 
ENDBRANCH  21  22
ENDBRANCH   5  21
BRANCH   4  28
ATOM     28  O6  <0> d   1       1.042   3.425   3.476  0.00  0.00    -0.360 OA
ATOM     29  H24 <0> d   1       1.460   2.915   2.596  0.00  0.00     0.217 HD
ENDBRANCH   4  28
TORSDOF 8
