REMARK  6 active torsions:
REMARK  status: ('A' for Active; 'I' for Inactive)
REMARK    1  A    between atoms: C3_3  and  C12_17 
REMARK    2  A    between atoms: C4_4  and  C5_8 
REMARK    3  A    between atoms: C8_11  and  O2_15 
REMARK    4  A    between atoms: C10_13  and  O1_14 
REMARK    5  A    between atoms: C15_20  and  O4_25 
REMARK    6  A    between atoms: C16_21  and  O3_23 
ROOT
ATOM      1  C1  <0> d   1      -0.018   1.503   0.010  0.00  0.00     0.073 C 
ATOM      2  C2  <0> d   1       0.002  -0.004   0.002  0.00  0.00     0.064 A 
ATOM      3  C3  <0> d   1       0.008  -0.819  -1.144  0.00  0.00     0.029 A 
ATOM      4  C4  <0> d   1       0.028  -2.138  -0.712  0.00  0.00     0.076 A 
ATOM      5  N1  <0> d   1       0.034  -2.111   0.651  0.00  0.00    -0.276 N 
ATOM      6  H1  <0> d   1       0.048  -2.885   1.236  0.00  0.00     0.189 HD
ATOM      7  N2  <0> d   1       0.023  -0.772   1.058  0.00  0.00    -0.178 NA
ENDROOT
BRANCH   3   8
ATOM      8  C12 <0> d   1      -0.006  -0.355  -2.552  0.00  0.00    -0.019 A 
ATOM      9  C17 <0> d   1       1.075   0.363  -3.062  0.00  0.00     0.052 A 
ATOM     10  C16 <0> d   1       1.061   0.789  -4.378  0.00  0.00     0.102 A 
ATOM     11  C15 <0> d   1      -0.037   0.510  -5.187  0.00  0.00     0.101 A 
ATOM     12  C14 <0> d   1      -1.114  -0.199  -4.678  0.00  0.00     0.040 A 
ATOM     13  C13 <0> d   1      -1.102  -0.631  -3.368  0.00  0.00     0.015 A 
BRANCH  10  14
ATOM     14  O3  <0> d   1       2.117   1.484  -4.879  0.00  0.00    -0.353 OA
ATOM     15  C18 <0> d   1       3.209   1.734  -3.993  0.00  0.00     0.210 C 
ENDBRANCH  10  14
BRANCH  11  16
ATOM     16  O4  <0> d   1      -0.053   0.934  -6.480  0.00  0.00    -0.353 OA
ATOM     17  C19 <0> d   1      -1.210   0.613  -7.254  0.00  0.00     0.210 C 
ENDBRANCH  11  16
ENDBRANCH   3   8
BRANCH   4  18
ATOM     18  C5  <0> d   1       0.040  -3.342  -1.567  0.00  0.00     0.026 A 
ATOM     19  C10 <0> d   1       1.138  -3.604  -2.397  0.00  0.00     0.081 A 
ATOM     20  C9  <0> d   1       1.145  -4.738  -3.192  0.00  0.00     0.074 A 
ATOM     21  C8  <0> d   1       0.062  -5.605  -3.173  0.00  0.00     0.070 A 
ATOM     22  C7  <0> d   1      -1.030  -5.344  -2.354  0.00  0.00     0.038 A 
ATOM     23  C6  <0> d   1      -1.045  -4.221  -1.555  0.00  0.00     0.019 A 
BRANCH  19  24
ATOM     24  O1  <0> d   1       2.195  -2.751  -2.419  0.00  0.00    -0.360 OA
ATOM     25  H8  <0> d   1       2.884  -2.962  -1.774  0.00  0.00     0.217 HD
ENDBRANCH  19  24
BRANCH  21  26
ATOM     26  O2  <0> d   1       0.070  -6.714  -3.957  0.00  0.00    -0.356 OA
ATOM     27  C11 <0> d   1      -1.077  -7.565  -3.889  0.00  0.00     0.210 C 
ENDBRANCH  21  26
ENDBRANCH   4  18
TORSDOF 6
