REMARK  6 active torsions:
REMARK  status: ('A' for Active; 'I' for Inactive)
REMARK    1  A    between atoms: C7_7  and  C8_8 
REMARK    2  A    between atoms: C15_16  and  C17_19 
REMARK    3  A    between atoms: C17_19  and  N1_20 
REMARK    4  A    between atoms: N2_23  and  C22_26 
REMARK    5  A    between atoms: C22_26  and  C23_27 
REMARK    6  A    between atoms: C23_27  and  O3_28 
ROOT
ATOM      1  C8  <0> d   1       0.026   0.010   2.489  0.00  0.00     0.053 C 
ATOM      2  C9  <0> d   1      -0.056  -0.677   3.655  0.00  0.00     0.128 A 
ATOM      3  C10 <0> d   1      -0.174  -0.095   5.002  0.00  0.00     0.218 A 
ATOM      4  O1  <0> d   1      -0.218   1.085   5.303  0.00  0.00    -0.284 OA
ATOM      5  C11 <0> d   1      -0.227  -1.259   5.904  0.00  0.00     0.051 A 
ATOM      6  C12 <0> d   1      -0.335  -1.389   7.290  0.00  0.00     0.021 A 
ATOM      7  C13 <0> d   1      -0.359  -2.631   7.857  0.00  0.00     0.041 A 
ATOM      8  C14 <0> d   1      -0.276  -3.768   7.057  0.00  0.00     0.118 A 
ATOM      9  C15 <0> d   1      -0.168  -3.654   5.681  0.00  0.00     0.039 A 
ATOM     10  C16 <0> d   1      -0.142  -2.398   5.087  0.00  0.00     0.101 A 
ATOM     11  O2  <0> d   1      -0.050  -2.024   3.792  0.00  0.00    -0.305 OA
ATOM     12  O4  <0> d   1      -0.301  -4.997   7.631  0.00  0.00    -0.191 OA
ENDROOT
BRANCH   9  13
ATOM     13  C17 <0> d   1      -0.077  -4.893   4.827  0.00  0.00     0.279 C 
BRANCH  13  14
ATOM     14  N1  <0> d   1      -1.428  -5.319   4.439  0.00  0.00    -0.064 N 
ATOM     15  C21 <0> d   1      -1.335  -6.454   3.511  0.00  0.00     0.265 C 
ATOM     16  C20 <0> d   1      -2.742  -6.886   3.091  0.00  0.00     0.300 C 
ATOM     17  N2  <0> d   1      -3.510  -7.269   4.285  0.00  0.00     0.093 N 
ATOM     18  C19 <0> d   1      -3.590  -6.151   5.235  0.00  0.00     0.300 C 
ATOM     19  C18 <0> d   1      -2.176  -5.724   5.636  0.00  0.00     0.265 C 
ATOM     20  H26 <0> d   1      -1.906  -4.554   3.987  0.00  0.00     0.280 HD
BRANCH  17  21
ATOM     21  C22 <0> d   1      -4.850  -7.746   3.918  0.00  0.00     0.298 C 
BRANCH  21  22
ATOM     22  C23 <0> d   1      -4.729  -9.054   3.134  0.00  0.00     0.194 C 
BRANCH  22  23
ATOM     23  O3  <0> d   1      -4.186 -10.069   3.982  0.00  0.00    -0.399 OA
ATOM     24  H25 <0> d   1      -4.082 -10.928   3.550  0.00  0.00     0.209 HD
ENDBRANCH  22  23
ENDBRANCH  21  22
ENDBRANCH  17  21
ENDBRANCH  13  14
ENDBRANCH   9  13
BRANCH   1  25
ATOM     25  C7  <0> d   1      -0.020  -0.709   1.208  0.00  0.00    -0.028 A 
ATOM     26  C2  <0> d   1      -0.300  -0.018   0.024  0.00  0.00    -0.052 A 
ATOM     27  C1  <0> d   1      -0.557   1.467   0.057  0.00  0.00     0.049 C 
ATOM     28  C3  <0> d   1      -0.335  -0.699  -1.175  0.00  0.00     0.007 A 
ATOM     29  C4  <0> d   1      -0.101  -2.062  -1.208  0.00  0.00     0.001 A 
ATOM     30  C5  <0> d   1       0.172  -2.754  -0.041  0.00  0.00     0.001 A 
ATOM     31  C6  <0> d   1       0.211  -2.089   1.166  0.00  0.00     0.012 A 
ENDBRANCH   1  25
TORSDOF 6
