REMARK  7 active torsions:
REMARK  status: ('A' for Active; 'I' for Inactive)
REMARK    1  A    between atoms: C3_3  and  C24_31 
REMARK    2  A    between atoms: C8_9  and  O5_30 
REMARK    3  A    between atoms: C9_10  and  C11_13 
REMARK    4  A    between atoms: C11_13  and  N1_14 
REMARK    5  A    between atoms: N2_17  and  C16_20 
REMARK    6  A    between atoms: C16_20  and  C17_21 
REMARK    7  A    between atoms: C27_34  and  O6_37 
ROOT
ATOM      1  C1  <0> d   1      -0.018   1.503   0.010  0.00  0.00     0.077 C 
ATOM      2  C2  <0> d   1       0.002  -0.004   0.002  0.00  0.00     0.065 C 
ATOM      3  C3  <0> d   1      -1.182  -0.671   0.004  0.00  0.00     0.054 C 
ATOM      4  C4  <0> d   1      -1.150  -2.146   0.014  0.00  0.00     0.198 C 
ATOM      5  O1  <0> d   1      -2.144  -2.815  -0.209  0.00  0.00    -0.286 OA
ATOM      6  C5  <0> d   1       0.158  -2.762   0.308  0.00  0.00     0.050 A 
ATOM      7  C6  <0> d   1       0.273  -4.121   0.598  0.00  0.00     0.021 A 
ATOM      8  C7  <0> d   1       1.501  -4.653   0.871  0.00  0.00     0.038 A 
ATOM      9  C8  <0> d   1       2.635  -3.843   0.863  0.00  0.00     0.076 A 
ATOM     10  C9  <0> d   1       2.536  -2.493   0.574  0.00  0.00     0.035 A 
ATOM     11  C10 <0> d   1       1.296  -1.936   0.290  0.00  0.00     0.100 A 
ATOM     12  O2  <0> d   1       1.182  -0.627  -0.013  0.00  0.00    -0.313 OA
ENDROOT
BRANCH  10  13
ATOM     13  C11 <0> d   1       3.771  -1.629   0.569  0.00  0.00     0.279 C 
BRANCH  13  14
ATOM     14  N1  <0> d   1       4.357  -1.622  -0.778  0.00  0.00    -0.064 N 
ATOM     15  C15 <0> d   1       5.490  -0.687  -0.814  0.00  0.00     0.265 C 
ATOM     16  C14 <0> d   1       6.089  -0.665  -2.222  0.00  0.00     0.300 C 
ATOM     17  N2  <0> d   1       6.537  -2.018  -2.582  0.00  0.00     0.095 N 
ATOM     18  C13 <0> d   1       5.419  -2.970  -2.526  0.00  0.00     0.300 C 
ATOM     19  C12 <0> d   1       4.825  -2.973  -1.116  0.00  0.00     0.265 C 
ATOM     20  H31 <0> d   1       3.660  -1.331  -1.447  0.00  0.00     0.280 HD
BRANCH  17  21
ATOM     21  C16 <0> d   1       7.171  -2.028  -3.906  0.00  0.00     0.311 C 
BRANCH  21  22
ATOM     22  C17 <0> d   1       8.451  -1.234  -3.857  0.00  0.00    -0.027 A 
ATOM     23  C22 <0> d   1       9.641  -1.862  -3.537  0.00  0.00     0.048 A 
ATOM     24  C21 <0> d   1      10.819  -1.135  -3.496  0.00  0.00     0.105 A 
ATOM     25  C20 <0> d   1      10.800   0.231  -3.766  0.00  0.00     0.105 A 
ATOM     26  O3  <0> d   1      12.103  -1.508  -3.218  0.00  0.00    -0.323 OA
ATOM     27  C19 <0> d   1       9.604   0.855  -4.079  0.00  0.00     0.040 A 
ATOM     28  O4  <0> d   1      12.072   0.715  -3.657  0.00  0.00    -0.323 OA
ATOM     29  C18 <0> d   1       8.433   0.122  -4.124  0.00  0.00     0.012 A 
ATOM     30  C23 <0> d   1      12.930  -0.440  -3.719  0.00  0.00     0.352 C 
ENDBRANCH  21  22
ENDBRANCH  17  21
ENDBRANCH  13  14
ENDBRANCH  10  13
BRANCH   9  31
ATOM     31  O5  <0> d   1       3.849  -4.384   1.140  0.00  0.00    -0.360 OA
ATOM     32  H23 <0> d   1       4.319  -4.715   0.363  0.00  0.00     0.217 HD
ENDBRANCH   9  31
BRANCH   3  33
ATOM     33  C24 <0> d   1      -2.470   0.064  -0.002  0.00  0.00    -0.019 A 
ATOM     34  C29 <0> d   1      -3.328  -0.040  -1.096  0.00  0.00     0.015 A 
ATOM     35  C28 <0> d   1      -4.529   0.639  -1.096  0.00  0.00     0.037 A 
ATOM     36  C27 <0> d   1      -4.877   1.435  -0.014  0.00  0.00     0.068 A 
ATOM     37  C26 <0> d   1      -4.023   1.545   1.074  0.00  0.00     0.037 A 
ATOM     38  C25 <0> d   1      -2.824   0.863   1.083  0.00  0.00     0.015 A 
BRANCH  36  39
ATOM     39  O6  <0> d   1      -6.058   2.108  -0.019  0.00  0.00    -0.356 OA
ATOM     40  C30 <0> d   1      -6.889   1.950  -1.171  0.00  0.00     0.210 C 
ENDBRANCH  36  39
ENDBRANCH   3  33
TORSDOF 7
