REMARK  10 active torsions:
REMARK  status: ('A' for Active; 'I' for Inactive)
REMARK    1  A    between atoms: C2_2  and  O1_3 
REMARK    2  A    between atoms: O1_3  and  C3_4 
REMARK    3  A    between atoms: C8_9  and  O2_10 
REMARK    4  A    between atoms: O2_10  and  C9_11 
REMARK    5  A    between atoms: C16_20  and  O6_32 
REMARK    6  A    between atoms: C17_21  and  C18_22 
REMARK    7  A    between atoms: C18_22  and  N1_23 
REMARK    8  A    between atoms: N2_26  and  C23_29 
REMARK    9  A    between atoms: C23_29  and  C24_30 
REMARK   10  A    between atoms: C24_30  and  O5_31 
ROOT
ATOM      1  C9  <0> d   1      -5.134  -2.087   0.088  0.00  0.00     0.156 A 
ATOM      2  C10 <0> d   1      -5.337  -3.417   0.164  0.00  0.00     0.087 A 
ATOM      3  O3  <0> d   1      -6.560  -3.961   0.219  0.00  0.00    -0.311 OA
ATOM      4  C11 <0> d   1      -7.684  -3.216   0.202  0.00  0.00     0.101 A 
ATOM      5  C12 <0> d   1      -7.592  -1.815   0.124  0.00  0.00     0.052 A 
ATOM      6  C13 <0> d   1      -6.252  -1.205   0.069  0.00  0.00     0.221 A 
ATOM      7  O4  <0> d   1      -6.106   0.004   0.005  0.00  0.00    -0.284 OA
ATOM      8  C14 <0> d   1      -8.748  -1.033   0.106  0.00  0.00     0.021 A 
ATOM      9  C15 <0> d   1      -9.973  -1.634   0.165  0.00  0.00     0.038 A 
ATOM     10  C16 <0> d   1     -10.074  -3.022   0.242  0.00  0.00     0.076 A 
ATOM     11  C17 <0> d   1      -8.936  -3.811   0.260  0.00  0.00     0.038 A 
ATOM     12  C25 <0> d   1      -4.139  -4.331   0.188  0.00  0.00     0.080 C 
ENDROOT
BRANCH  11  13
ATOM     13  C18 <0> d   1      -9.057  -5.311   0.344  0.00  0.00     0.317 C 
BRANCH  13  14
ATOM     14  N1  <0> d   1      -9.067  -5.724   1.754  0.00  0.00     0.096 N 
ATOM     15  C22 <0> d   1      -9.421  -7.144   1.884  0.00  0.00     0.303 C 
ATOM     16  C21 <0> d   1      -9.498  -7.514   3.367  0.00  0.00     0.302 C 
ATOM     17  N2  <0> d   1      -8.204  -7.235   4.007  0.00  0.00     0.093 N 
ATOM     18  C20 <0> d   1      -7.851  -5.814   3.876  0.00  0.00     0.302 C 
ATOM     19  C19 <0> d   1      -7.774  -5.445   2.393  0.00  0.00     0.303 C 
BRANCH  17  20
ATOM     20  C23 <0> d   1      -8.214  -7.648   5.417  0.00  0.00     0.298 C 
BRANCH  20  21
ATOM     21  C24 <0> d   1      -8.338  -9.171   5.501  0.00  0.00     0.194 C 
BRANCH  21  22
ATOM     22  O5  <0> d   1      -7.171  -9.775   4.939  0.00  0.00    -0.399 OA
ATOM     23  H26 <0> d   1      -7.181 -10.742   4.959  0.00  0.00     0.209 HD
ENDBRANCH  21  22
ENDBRANCH  20  21
ENDBRANCH  17  20
ENDBRANCH  13  14
ENDBRANCH  11  13
BRANCH  10  24
ATOM     24  O6  <0> d   1     -11.298  -3.605   0.300  0.00  0.00    -0.360 OA
ATOM     25  H27 <0> d   1     -11.672  -3.821  -0.565  0.00  0.00     0.217 HD
ENDBRANCH  10  24
BRANCH   1  26
ATOM     26  O2  <0> d   1      -3.868  -1.589   0.035  0.00  0.00    -0.301 OA
BRANCH  26  27
ATOM     27  C8  <0> d   1      -3.470  -0.976  -1.111  0.00  0.00     0.109 A 
ATOM     28  C3  <0> d   1      -2.231  -0.345  -1.171  0.00  0.00     0.102 A 
ATOM     29  C4  <0> d   1      -1.828   0.274  -2.343  0.00  0.00     0.039 A 
ATOM     30  C5  <0> d   1      -2.659   0.269  -3.449  0.00  0.00     0.003 A 
ATOM     31  C6  <0> d   1      -3.892  -0.353  -3.388  0.00  0.00     0.003 A 
ATOM     32  C7  <0> d   1      -4.300  -0.973  -2.221  0.00  0.00     0.040 A 
BRANCH  28  33
ATOM     33  O1  <0> d   1      -1.415  -0.341  -0.083  0.00  0.00    -0.349 OA
BRANCH  33  34
ATOM     34  C2  <0> d   1      -0.158   0.326  -0.217  0.00  0.00     0.171 C 
ATOM     35  C1  <0> d   1       0.615   0.225   1.099  0.00  0.00     0.034 C 
ENDBRANCH  33  34
ENDBRANCH  28  33
ENDBRANCH  26  27
ENDBRANCH   1  26
TORSDOF 10
