REMARK  4 active torsions:
REMARK  status: ('A' for Active; 'I' for Inactive)
REMARK    1  A    between atoms: C2_2  and  N1_3 
REMARK    2  A    between atoms: N2_6  and  C7_9 
REMARK    3  A    between atoms: C7_9  and  C8_10 
REMARK    4  A    between atoms: C15_18  and  C16_19 
ROOT
ATOM      1  C8  <0> d   1      -1.258   3.136  -0.047  0.00  0.00     0.041 A 
ATOM      2  C9  <0> d   1      -1.222   1.751  -0.075  0.00  0.00     0.118 A 
ATOM      3  C10 <0> d   1      -0.006   1.074  -0.077  0.00  0.00     0.048 A 
ATOM      4  C11 <0> d   1       1.169   1.773  -0.063  0.00  0.00    -0.042 A 
ATOM      5  C12 <0> d   1       1.147   3.168  -0.041  0.00  0.00     0.057 A 
ATOM      6  C13 <0> d   1      -0.074   3.861  -0.032  0.00  0.00     0.102 A 
ATOM      7  O1  <0> d   1       0.157   5.192  -0.011  0.00  0.00    -0.305 OA
ATOM      8  C14 <0> d   1       1.482   5.473  -0.003  0.00  0.00     0.128 A 
ATOM      9  C15 <0> d   1       2.038   6.709   0.018  0.00  0.00     0.054 C 
ATOM     10  C21 <0> d   1       2.207   4.192  -0.022  0.00  0.00     0.219 A 
ATOM     11  O2  <0> d   1       3.413   4.018  -0.022  0.00  0.00    -0.284 OA
ATOM     12  C22 <0> d   1       2.484   1.039  -0.071  0.00  0.00     0.049 C 
ATOM     13  O3  <0> d   1      -2.383   1.048  -0.094  0.00  0.00    -0.191 OA
ENDROOT
BRANCH   1  14
ATOM     14  C7  <0> d   1      -2.583   3.855  -0.039  0.00  0.00     0.317 C 
BRANCH  14  15
ATOM     15  N2  <0> d   1      -3.010   4.110  -1.421  0.00  0.00     0.096 N 
ATOM     16  C4  <0> d   1      -4.397   4.593  -1.463  0.00  0.00     0.300 C 
ATOM     17  C3  <0> d   1      -4.829   4.771  -2.921  0.00  0.00     0.265 C 
ATOM     18  N1  <0> d   1      -3.924   5.719  -3.584  0.00  0.00    -0.068 N 
ATOM     19  C6  <0> d   1      -2.536   5.237  -3.542  0.00  0.00     0.265 C 
ATOM     20  H25 <0> d   1      -3.969   6.672  -3.037  0.00  0.00     0.280 HD
ATOM     21  C5  <0> d   1      -2.105   5.059  -2.085  0.00  0.00     0.300 C 
BRANCH  18  22
ATOM     22  C2  <0> d   1      -4.350   5.975  -4.967  0.00  0.00     0.230 C 
ATOM     23  C1  <0> d   1      -3.261   6.760  -5.700  0.00  0.00     0.034 C 
ENDBRANCH  18  22
ENDBRANCH  14  15
ENDBRANCH   1  14
BRANCH   9  24
ATOM     24  C16 <0> d   1       1.185   7.902  -0.078  0.00  0.00    -0.016 A 
ATOM     25  C20 <0> d   1       1.751   9.177  -0.182  0.00  0.00     0.127 A 
ATOM     26  N3  <0> d   1       0.985  10.244  -0.267  0.00  0.00    -0.272 NA
ATOM     27  C19 <0> d   1      -0.332  10.159  -0.259  0.00  0.00     0.116 A 
ATOM     28  C18 <0> d   1      -0.971   8.935  -0.160  0.00  0.00     0.020 A 
ATOM     29  C17 <0> d   1      -0.214   7.781  -0.072  0.00  0.00     0.014 A 
ENDBRANCH   9  24
TORSDOF 4
