REMARK  5 active torsions:
REMARK  status: ('A' for Active; 'I' for Inactive)
REMARK    1  A    between atoms: C4_4  and  C7_7 
REMARK    2  A    between atoms: C8_8  and  C9_9 
REMARK    3  A    between atoms: C9_9  and  N1_10 
REMARK    4  A    between atoms: N2_13  and  C14_16 
REMARK    5  A    between atoms: C14_16  and  C15_17 
ROOT
ATOM      1  C14 <0> d   1       3.672   2.236  -1.543  0.00  0.00     0.312 C 
ENDROOT
BRANCH   1   2
ATOM      2  N2  <0> d   1       3.007   2.424  -2.840  0.00  0.00     0.096 N 
ATOM      3  C11 <0> d   1       3.279   1.295  -3.740  0.00  0.00     0.303 C 
ATOM      4  C10 <0> d   1       2.637   1.565  -5.102  0.00  0.00     0.303 C 
ATOM      5  N1  <0> d   1       1.191   1.761  -4.929  0.00  0.00     0.095 N 
ATOM      6  C13 <0> d   1       0.919   2.891  -4.029  0.00  0.00     0.303 C 
ATOM      7  C12 <0> d   1       1.561   2.620  -2.667  0.00  0.00     0.303 C 
BRANCH   5   8
ATOM      8  C9  <0> d   1       0.526   1.949  -6.225  0.00  0.00     0.300 C 
BRANCH   8   9
ATOM      9  C8  <0> d   1      -0.898   2.388  -6.001  0.00  0.00     0.004 C 
ATOM     10  C7  <0> d   1      -1.346   3.501  -6.564  0.00  0.00     0.009 C 
BRANCH  10  11
ATOM     11  C4  <0> d   1      -2.743   3.931  -6.343  0.00  0.00    -0.036 A 
ATOM     12  C3  <0> d   1      -3.216   5.103  -6.934  0.00  0.00     0.011 A 
ATOM     13  C2  <0> d   1      -4.521   5.499  -6.725  0.00  0.00     0.001 A 
ATOM     14  C1  <0> d   1      -5.360   4.737  -5.931  0.00  0.00     0.000 A 
ATOM     15  C6  <0> d   1      -4.896   3.574  -5.341  0.00  0.00     0.001 A 
ATOM     16  C5  <0> d   1      -3.595   3.164  -5.548  0.00  0.00     0.011 A 
ENDBRANCH  10  11
ENDBRANCH   8   9
ENDBRANCH   5   8
ENDBRANCH   1   2
BRANCH   1  17
ATOM     17  C15 <0> d   1       3.579   3.510  -0.742  0.00  0.00    -0.010 C 
ATOM     18  C19 <0> d   1       4.520   4.556  -0.845  0.00  0.00     0.017 C 
ATOM     19  C18 <0> d   1       4.585   5.485   0.209  0.00  0.00     0.091 C 
ATOM     20  C20 <0> d   1       5.489   4.689  -1.929  0.00  0.00    -0.012 C 
ATOM     21  O2  <0> d   1       3.587   5.552   1.117  0.00  0.00    -0.275 OA
ATOM     22  C27 <0> d   1       5.657   6.376   0.305  0.00  0.00     0.039 C 
ATOM     23  C17 <0> d   1       2.546   4.706   1.062  0.00  0.00     0.288 C 
ATOM     24  C16 <0> d   1       2.572   3.614   0.175  0.00  0.00     0.092 C 
ATOM     25  O1  <0> d   1       1.587   4.875   1.791  0.00  0.00    -0.260 OA
ATOM     26  C26 <0> d   1       6.675   6.354  -0.588  0.00  0.00     0.015 C 
ATOM     27  C25 <0> d   1       6.644   5.484  -1.695  0.00  0.00    -0.025 C 
ATOM     28  C24 <0> d   1       7.720   5.434  -2.594  0.00  0.00     0.012 C 
ATOM     29  C23 <0> d   1       7.583   4.763  -3.772  0.00  0.00     0.001 C 
ATOM     30  C22 <0> d   1       6.391   4.114  -4.075  0.00  0.00     0.001 C 
ATOM     31  C21 <0> d   1       5.367   4.067  -3.172  0.00  0.00     0.013 C 
ENDBRANCH   1  17
TORSDOF 5
