REMARK  4 active torsions:
REMARK  status: ('A' for Active; 'I' for Inactive)
REMARK    1  A    between atoms: C5_5  and  C6_7 
REMARK    2  A    between atoms: C12_14  and  O4_26 
REMARK    3  A    between atoms: C13_15  and  C15_18 
REMARK    4  A    between atoms: C15_18  and  N1_19 
ROOT
ATOM      1  C6  <0> d   1       1.631  -3.173  -0.025  0.00  0.00     0.078 C 
ATOM      2  C7  <0> d   1       2.980  -2.968  -0.030  0.00  0.00     0.129 A 
ATOM      3  C8  <0> d   1       3.974  -3.984  -0.047  0.00  0.00     0.218 A 
ATOM      4  O2  <0> d   1       3.799  -5.191  -0.059  0.00  0.00    -0.284 OA
ATOM      5  C9  <0> d   1       5.260  -3.265  -0.047  0.00  0.00     0.051 A 
ATOM      6  C10 <0> d   1       6.592  -3.679  -0.059  0.00  0.00     0.021 A 
ATOM      7  C11 <0> d   1       7.593  -2.749  -0.054  0.00  0.00     0.038 A 
ATOM      8  C12 <0> d   1       7.288  -1.391  -0.037  0.00  0.00     0.076 A 
ATOM      9  C13 <0> d   1       5.969  -0.965  -0.025  0.00  0.00     0.038 A 
ATOM     10  C14 <0> d   1       4.941  -1.897  -0.030  0.00  0.00     0.101 A 
ATOM     11  O3  <0> d   1       3.597  -1.764  -0.027  0.00  0.00    -0.305 OA
ENDROOT
BRANCH   9  12
ATOM     12  C15 <0> d   1       5.652   0.508  -0.006  0.00  0.00     0.317 C 
BRANCH  12  13
ATOM     13  N1  <0> d   1       5.542   1.003  -1.385  0.00  0.00     0.096 N 
ATOM     14  C19 <0> d   1       5.470   2.470  -1.414  0.00  0.00     0.303 C 
ATOM     15  C18 <0> d   1       5.436   2.948  -2.867  0.00  0.00     0.302 C 
ATOM     16  N2  <0> d   1       4.277   2.353  -3.549  0.00  0.00     0.087 N 
ATOM     17  C17 <0> d   1       4.350   0.886  -3.520  0.00  0.00     0.302 C 
ATOM     18  C20 <0> d   1       4.167   2.848  -4.928  0.00  0.00     0.310 C 
ATOM     19  C16 <0> d   1       4.384   0.408  -2.067  0.00  0.00     0.303 C 
ENDBRANCH  12  13
ENDBRANCH   9  12
BRANCH   8  20
ATOM     20  O4  <0> d   1       8.291  -0.476  -0.033  0.00  0.00    -0.360 OA
ATOM     21  H22 <0> d   1       8.576  -0.201  -0.915  0.00  0.00     0.217 HD
ENDBRANCH   8  20
BRANCH   1  22
ATOM     22  C5  <0> d   1       0.749  -2.069  -0.014  0.00  0.00     0.078 A 
ATOM     23  C4  <0> d   1      -0.631  -2.129  -0.007  0.00  0.00     0.040 A 
ATOM     24  C3  <0> d   1      -1.088  -0.803   0.003  0.00  0.00     0.035 A 
ATOM     25  C2  <0> d   1       0.002  -0.004   0.002  0.00  0.00     0.050 A 
ATOM     26  C1  <0> d   1      -0.018   1.503   0.010  0.00  0.00     0.076 C 
ATOM     27  O1  <0> d   1       1.104  -0.767  -0.013  0.00  0.00    -0.316 OA
ENDBRANCH   1  22
TORSDOF 4
