REMARK  3 active torsions:
REMARK  status: ('A' for Active; 'I' for Inactive)
REMARK    1  A    between atoms: C5_5  and  C16_19 
REMARK    2  A    between atoms: C10_11  and  C11_12 
REMARK    3  A    between atoms: C16_19  and  N2_20 
ROOT
ATOM      1  C1  <0> d   1       2.484   1.039  -0.071  0.00  0.00     0.049 C 
ATOM      2  C2  <0> d   1       1.169   1.773  -0.063  0.00  0.00    -0.042 A 
ATOM      3  C3  <0> d   1      -0.006   1.074  -0.077  0.00  0.00     0.048 A 
ATOM      4  C4  <0> d   1      -1.222   1.751  -0.075  0.00  0.00     0.118 A 
ATOM      5  C5  <0> d   1      -1.258   3.136  -0.047  0.00  0.00     0.041 A 
ATOM      6  C6  <0> d   1      -0.074   3.861  -0.032  0.00  0.00     0.102 A 
ATOM      7  C7  <0> d   1       1.147   3.168  -0.041  0.00  0.00     0.057 A 
ATOM      8  C8  <0> d   1       2.207   4.192  -0.022  0.00  0.00     0.219 A 
ATOM      9  O1  <0> d   1       3.413   4.018  -0.022  0.00  0.00    -0.284 OA
ATOM     10  C9  <0> d   1       1.482   5.473  -0.003  0.00  0.00     0.128 A 
ATOM     11  C10 <0> d   1       2.038   6.709   0.018  0.00  0.00     0.054 C 
ATOM     12  O2  <0> d   1       0.157   5.192  -0.011  0.00  0.00    -0.305 OA
ATOM     13  O4  <0> d   1      -2.383   1.048  -0.095  0.00  0.00    -0.191 OA
ENDROOT
BRANCH   5  14
ATOM     14  C16 <0> d   1      -2.583   3.855  -0.039  0.00  0.00     0.317 C 
BRANCH  14  15
ATOM     15  N2  <0> d   1      -3.010   4.110  -1.421  0.00  0.00     0.097 N 
ATOM     16  C20 <0> d   1      -4.397   4.593  -1.463  0.00  0.00     0.299 C 
ATOM     17  C19 <0> d   1      -4.820   4.789  -2.922  0.00  0.00     0.198 C 
ATOM     18  O3  <0> d   1      -3.913   5.693  -3.558  0.00  0.00    -0.388 OA
ATOM     19  C18 <0> d   1      -2.552   5.253  -3.536  0.00  0.00     0.198 C 
ATOM     20  C17 <0> d   1      -2.106   5.062  -2.084  0.00  0.00     0.299 C 
ENDBRANCH  14  15
ENDBRANCH   5  14
BRANCH  11  21
ATOM     21  C11 <0> d   1       1.185   7.902  -0.078  0.00  0.00    -0.016 A 
ATOM     22  C15 <0> d   1       1.751   9.177  -0.182  0.00  0.00     0.127 A 
ATOM     23  N1  <0> d   1       0.985  10.244  -0.267  0.00  0.00    -0.272 NA
ATOM     24  C14 <0> d   1      -0.332  10.159  -0.259  0.00  0.00     0.116 A 
ATOM     25  C13 <0> d   1      -0.971   8.935  -0.160  0.00  0.00     0.020 A 
ATOM     26  C12 <0> d   1      -0.214   7.781  -0.072  0.00  0.00     0.014 A 
ENDBRANCH  11  21
TORSDOF 3
