REMARK  6 active torsions:
REMARK  status: ('A' for Active; 'I' for Inactive)
REMARK    1  A    between atoms: N2_5  and  C6_8 
REMARK    2  A    between atoms: C6_8  and  C7_9 
REMARK    3  A    between atoms: C8_10  and  O4_32 
REMARK    4  A    between atoms: C13_16  and  C23_28 
REMARK    5  A    between atoms: C14_17  and  C16_20 
REMARK    6  A    between atoms: C19_23  and  O3_26 
ROOT
ATOM      1  C7  <0> d   1       2.610  -4.177   1.312  0.00  0.00     0.038 A 
ATOM      2  C8  <0> d   1       3.946  -4.506   1.161  0.00  0.00     0.076 A 
ATOM      3  C9  <0> d   1       4.605  -5.261   2.128  0.00  0.00     0.038 A 
ATOM      4  C10 <0> d   1       3.939  -5.686   3.243  0.00  0.00     0.021 A 
ATOM      5  C11 <0> d   1       2.594  -5.360   3.410  0.00  0.00     0.050 A 
ATOM      6  C12 <0> d   1       1.918  -4.598   2.439  0.00  0.00     0.101 A 
ATOM      7  O1  <0> d   1       0.615  -4.295   2.599  0.00  0.00    -0.303 OA
ATOM      8  C13 <0> d   1       0.004  -4.421   3.779  0.00  0.00     0.174 C 
ATOM      9  C14 <0> d   1       0.531  -5.136   4.807  0.00  0.00     0.064 C 
ATOM     10  C15 <0> d   1       1.839  -5.790   4.602  0.00  0.00     0.198 C 
ATOM     11  O2  <0> d   1       2.275  -6.625   5.376  0.00  0.00    -0.286 OA
ENDROOT
BRANCH   1  12
ATOM     12  C6  <0> d   1       1.909  -3.359   0.258  0.00  0.00     0.317 C 
BRANCH  12  13
ATOM     13  N2  <0> d   1       2.048  -1.931   0.574  0.00  0.00     0.096 N 
ATOM     14  C3  <0> d   1       1.588  -1.096  -0.545  0.00  0.00     0.303 C 
ATOM     15  C2  <0> d   1       1.822   0.378  -0.208  0.00  0.00     0.302 C 
ATOM     16  N1  <0> d   1       1.102   0.716   1.028  0.00  0.00     0.087 N 
ATOM     17  C1  <0> d   1       1.241   2.144   1.344  0.00  0.00     0.310 C 
ATOM     18  C5  <0> d   1       1.562  -0.118   2.147  0.00  0.00     0.302 C 
ATOM     19  C4  <0> d   1       1.328  -1.593   1.810  0.00  0.00     0.303 C 
ENDBRANCH  12  13
ENDBRANCH   1  12
BRANCH   2  20
ATOM     20  O4  <0> d   1       4.621  -4.088   0.059  0.00  0.00    -0.360 OA
ATOM     21  H23 <0> d   1       5.046  -3.226   0.162  0.00  0.00     0.217 HD
ENDBRANCH   2  20
BRANCH   8  22
ATOM     22  C23 <0> d   1      -1.327  -3.743   3.978  0.00  0.00     0.440 C 
ATOM     23  F1  <0> d   1      -1.705  -3.844   5.322  0.00  0.00    -0.164 F 
ATOM     24  F2  <0> d   1      -1.220  -2.393   3.624  0.00  0.00    -0.164 F 
ATOM     25  F3  <0> d   1      -2.291  -4.361   3.175  0.00  0.00    -0.164 F 
ENDBRANCH   8  22
BRANCH   9  26
ATOM     26  C16 <0> d   1      -0.193  -5.264   6.096  0.00  0.00    -0.019 A 
ATOM     27  C21 <0> d   1       0.235  -4.546   7.211  0.00  0.00     0.015 A 
ATOM     28  C20 <0> d   1      -0.444  -4.662   8.406  0.00  0.00     0.037 A 
ATOM     29  C19 <0> d   1      -1.544  -5.503   8.502  0.00  0.00     0.068 A 
ATOM     30  C18 <0> d   1      -1.969  -6.224   7.395  0.00  0.00     0.037 A 
ATOM     31  C17 <0> d   1      -1.298  -6.107   6.195  0.00  0.00     0.015 A 
BRANCH  29  32
ATOM     32  O3  <0> d   1      -2.208  -5.620   9.683  0.00  0.00    -0.356 OA
ATOM     33  C22 <0> d   1      -1.718  -4.849  10.781  0.00  0.00     0.210 C 
ENDBRANCH  29  32
ENDBRANCH   9  26
TORSDOF 6
