REMARK  7 active torsions:
REMARK  status: ('A' for Active; 'I' for Inactive)
REMARK    1  A    between atoms: C4_4  and  C7_7 
REMARK    2  A    between atoms: C12_12  and  O1_13 
REMARK    3  A    between atoms: C13_14  and  C16_19 
REMARK    4  A    between atoms: C16_19  and  N1_20 
REMARK    5  A    between atoms: N2_23  and  C21_26 
REMARK    6  A    between atoms: C21_26  and  C22_27 
REMARK    7  A    between atoms: C22_27  and  O4_28 
ROOT
ATOM      1  C7  <0> d   1       2.066   2.528   0.317  0.00  0.00     0.010 A 
ATOM      2  C8  <0> d   1       1.012   1.637   0.141  0.00  0.00     0.053 A 
ATOM      3  C9  <0> d   1      -0.284   2.113   0.025  0.00  0.00     0.091 A 
ATOM      4  C10 <0> d   1      -0.527   3.497   0.097  0.00  0.00     0.009 A 
ATOM      5  C11 <0> d   1       0.536   4.390   0.273  0.00  0.00     0.052 A 
ATOM      6  C12 <0> d   1       1.823   3.908   0.382  0.00  0.00     0.077 A 
ATOM      7  C13 <0> d   1      -1.904   3.983  -0.022  0.00  0.00    -0.011 A 
ATOM      8  C14 <0> d   1      -2.893   3.071  -0.209  0.00  0.00     0.092 A 
ATOM      9  C15 <0> d   1      -2.578   1.697  -0.266  0.00  0.00     0.288 A 
ATOM     10  O2  <0> d   1      -3.476   0.889  -0.424  0.00  0.00    -0.260 OA
ATOM     11  O3  <0> d   1      -1.316   1.258  -0.151  0.00  0.00    -0.275 OA
ENDROOT
BRANCH   7  12
ATOM     12  C16 <0> d   1      -2.213   5.457   0.042  0.00  0.00     0.312 C 
BRANCH  12  13
ATOM     13  N1  <0> d   1      -2.102   5.920   1.432  0.00  0.00     0.096 N 
ATOM     14  C20 <0> d   1      -2.019   7.386   1.494  0.00  0.00     0.303 C 
ATOM     15  C19 <0> d   1      -1.825   7.823   2.947  0.00  0.00     0.302 C 
ATOM     16  N2  <0> d   1      -2.946   7.327   3.759  0.00  0.00     0.093 N 
ATOM     17  C18 <0> d   1      -3.029   5.861   3.697  0.00  0.00     0.302 C 
ATOM     18  C17 <0> d   1      -3.223   5.424   2.243  0.00  0.00     0.303 C 
BRANCH  16  19
ATOM     19  C21 <0> d   1      -2.835   7.790   5.148  0.00  0.00     0.298 C 
BRANCH  19  20
ATOM     20  C22 <0> d   1      -3.232   9.266   5.227  0.00  0.00     0.194 C 
BRANCH  20  21
ATOM     21  O4  <0> d   1      -4.611   9.407   4.879  0.00  0.00    -0.399 OA
ATOM     22  H24 <0> d   1      -5.079  10.402   4.879  0.00  0.00     0.209 HD
ENDBRANCH  20  21
ENDBRANCH  19  20
ENDBRANCH  16  19
ENDBRANCH  12  13
ENDBRANCH   7  12
BRANCH   6  23
ATOM     23  O1  <0> d   1       2.858   4.771   0.554  0.00  0.00    -0.360 OA
ATOM     24  H8  <0> d   1       2.669   5.854   0.605  0.00  0.00     0.217 HD
ENDBRANCH   6  23
BRANCH   1  25
ATOM     25  C4  <0> d   1       3.452   2.017   0.434  0.00  0.00    -0.023 A 
ATOM     26  C3  <0> d   1       4.468   2.562  -0.349  0.00  0.00     0.012 A 
ATOM     27  C2  <0> d   1       5.757   2.082  -0.234  0.00  0.00     0.001 A 
ATOM     28  C1  <0> d   1       6.041   1.062   0.655  0.00  0.00     0.000 A 
ATOM     29  C6  <0> d   1       5.037   0.516   1.435  0.00  0.00     0.001 A 
ATOM     30  C5  <0> d   1       3.746   0.992   1.333  0.00  0.00     0.012 A 
ENDBRANCH   1  25
TORSDOF 7
