REMARK  6 active torsions:
REMARK  status: ('A' for Active; 'I' for Inactive)
REMARK    1  A    between atoms: C4_4  and  O5_31 
REMARK    2  A    between atoms: C5_5  and  C19_23 
REMARK    3  A    between atoms: C10_11  and  C11_12 
REMARK    4  A    between atoms: C15_16  and  O3_20 
REMARK    5  A    between atoms: C16_17  and  O2_18 
REMARK    6  A    between atoms: C19_23  and  N1_24 
ROOT
ATOM      1  C1  <0> d   1      -0.650   1.599   0.132  0.00  0.00     0.049 C 
ATOM      2  C2  <0> d   1      -0.758   0.096   0.112  0.00  0.00    -0.042 A 
ATOM      3  C3  <0> d   1      -1.038  -0.555  -1.057  0.00  0.00     0.045 A 
ATOM      4  C4  <0> d   1      -1.138  -1.943  -1.078  0.00  0.00     0.077 A 
ATOM      5  C5  <0> d   1      -0.956  -2.680   0.081  0.00  0.00     0.038 A 
ATOM      6  C6  <0> d   1      -0.671  -2.034   1.278  0.00  0.00     0.102 A 
ATOM      7  C7  <0> d   1      -0.567  -0.634   1.285  0.00  0.00     0.057 A 
ATOM      8  C8  <0> d   1      -0.255  -0.248   2.673  0.00  0.00     0.219 A 
ATOM      9  O1  <0> d   1      -0.086   0.875   3.115  0.00  0.00    -0.284 OA
ATOM     10  C9  <0> d   1      -0.192  -1.521   3.405  0.00  0.00     0.128 A 
ATOM     11  C10 <0> d   1       0.070  -1.674   4.728  0.00  0.00     0.055 C 
ATOM     12  O4  <0> d   1      -0.455  -2.514   2.522  0.00  0.00    -0.305 OA
ENDROOT
BRANCH  11  13
ATOM     13  C11 <0> d   1      -0.017  -3.002   5.345  0.00  0.00     0.003 A 
ATOM     14  C16 <0> d   1      -0.102  -3.129   6.740  0.00  0.00     0.111 A 
ATOM     15  C15 <0> d   1      -0.190  -4.393   7.312  0.00  0.00     0.102 A 
ATOM     16  C14 <0> d   1      -0.181  -5.520   6.506  0.00  0.00     0.040 A 
ATOM     17  C13 <0> d   1      -0.092  -5.397   5.129  0.00  0.00     0.004 A 
ATOM     18  C12 <0> d   1      -0.010  -4.153   4.545  0.00  0.00     0.014 A 
BRANCH  14  19
ATOM     19  O2  <0> d   1      -0.104  -2.022   7.527  0.00  0.00    -0.352 OA
ATOM     20  C17 <0> d   1      -1.376  -1.444   7.830  0.00  0.00     0.210 C 
ENDBRANCH  14  19
BRANCH  15  21
ATOM     21  O3  <0> d   1      -0.279  -4.524   8.663  0.00  0.00    -0.353 OA
ATOM     22  C18 <0> d   1      -0.359  -5.853   9.182  0.00  0.00     0.210 C 
ENDBRANCH  15  21
ENDBRANCH  11  13
BRANCH   5  23
ATOM     23  C19 <0> d   1      -1.068  -4.183   0.044  0.00  0.00     0.317 C 
BRANCH  23  24
ATOM     24  N1  <0> d   1       0.250  -4.765  -0.240  0.00  0.00     0.096 N 
ATOM     25  C23 <0> d   1       0.234  -6.222  -0.052  0.00  0.00     0.303 C 
ATOM     26  C22 <0> d   1       1.641  -6.779  -0.280  0.00  0.00     0.302 C 
ATOM     27  N2  <0> d   1       2.089  -6.431  -1.635  0.00  0.00     0.087 N 
ATOM     28  C21 <0> d   1       2.105  -4.974  -1.824  0.00  0.00     0.302 C 
ATOM     29  C24 <0> d   1       3.408  -7.014  -1.920  0.00  0.00     0.310 C 
ATOM     30  C20 <0> d   1       0.698  -4.417  -1.596  0.00  0.00     0.303 C 
ENDBRANCH  23  24
ENDBRANCH   5  23
BRANCH   4  31
ATOM     31  O5  <0> d   1      -1.417  -2.580  -2.244  0.00  0.00    -0.360 OA
ATOM     32  H28 <0> d   1      -0.633  -2.824  -2.755  0.00  0.00     0.217 HD
ENDBRANCH   4  31
TORSDOF 6
