REMARK  12 active torsions:
REMARK  status: ('A' for Active; 'I' for Inactive)
REMARK    1  A    between atoms: C2_2  and  C3_3 
REMARK    2  A    between atoms: C3_3  and  O1_4 
REMARK    3  A    between atoms: O1_4  and  C4_5 
REMARK    4  A    between atoms: C4_5  and  C5_7 
REMARK    5  A    between atoms: C8_10  and  O3_13 
REMARK    6  A    between atoms: O3_13  and  C11_14 
REMARK    7  A    between atoms: C18_23  and  O7_35 
REMARK    8  A    between atoms: C19_24  and  C20_25 
REMARK    9  A    between atoms: C20_25  and  N1_26 
REMARK   10  A    between atoms: N2_29  and  C25_32 
REMARK   11  A    between atoms: C25_32  and  C26_33 
REMARK   12  A    between atoms: C26_33  and  O6_34 
ROOT
ATOM      1  C11 <0> d   1      -1.335   2.603  -0.989  0.00  0.00     0.156 A 
ATOM      2  C12 <0> d   1      -1.307   3.480  -2.013  0.00  0.00     0.087 A 
ATOM      3  O4  <0> d   1      -1.239   4.805  -1.830  0.00  0.00    -0.311 OA
ATOM      4  C13 <0> d   1      -1.193   5.364  -0.604  0.00  0.00     0.101 A 
ATOM      5  C14 <0> d   1      -1.216   4.544   0.539  0.00  0.00     0.052 A 
ATOM      6  C15 <0> d   1      -1.296   3.085   0.350  0.00  0.00     0.221 A 
ATOM      7  O5  <0> d   1      -1.324   2.322   1.301  0.00  0.00    -0.284 OA
ATOM      8  C16 <0> d   1      -1.168   5.111   1.813  0.00  0.00     0.021 A 
ATOM      9  C17 <0> d   1      -1.099   6.468   1.948  0.00  0.00     0.038 A 
ATOM     10  C18 <0> d   1      -1.077   7.288   0.822  0.00  0.00     0.076 A 
ATOM     11  C19 <0> d   1      -1.123   6.741  -0.449  0.00  0.00     0.038 A 
ATOM     12  C27 <0> d   1      -1.355   2.947  -3.422  0.00  0.00     0.080 C 
ENDROOT
BRANCH   1  13
ATOM     13  O3  <0> d   1      -1.405   1.266  -1.234  0.00  0.00    -0.304 OA
BRANCH  13  14
ATOM     14  C8  <0> d   1      -0.241   0.581  -1.368  0.00  0.00     0.076 A 
ATOM     15  C7  <0> d   1      -0.266  -0.786  -1.619  0.00  0.00     0.038 A 
ATOM     16  C6  <0> d   1       0.912  -1.484  -1.761  0.00  0.00     0.020 A 
ATOM     17  C5  <0> d   1       2.135  -0.816  -1.652  0.00  0.00     0.039 A 
ATOM     18  C10 <0> d   1       2.156   0.559  -1.400  0.00  0.00     0.020 A 
ATOM     19  C9  <0> d   1       0.973   1.250  -1.259  0.00  0.00     0.038 A 
BRANCH  17  20
ATOM     20  C4  <0> d   1       3.400  -1.559  -1.803  0.00  0.00     0.293 C 
ATOM     21  O2  <0> d   1       3.380  -2.754  -2.022  0.00  0.00    -0.259 OA
BRANCH  20  22
ATOM     22  O1  <0> d   1       4.578  -0.913  -1.698  0.00  0.00    -0.318 OA
BRANCH  22  23
ATOM     23  C3  <0> d   1       5.782  -1.708  -1.857  0.00  0.00     0.178 C 
BRANCH  23  24
ATOM     24  C2  <0> d   1       7.011  -0.809  -1.706  0.00  0.00     0.022 C 
ATOM     25  C1  <0> d   1       8.280  -1.647  -1.874  0.00  0.00     0.007 C 
ENDBRANCH  23  24
ENDBRANCH  22  23
ENDBRANCH  20  22
ENDBRANCH  17  20
ENDBRANCH  13  14
ENDBRANCH   1  13
BRANCH  11  26
ATOM     26  C20 <0> d   1      -1.098   7.638  -1.660  0.00  0.00     0.317 C 
BRANCH  26  27
ATOM     27  N1  <0> d   1      -2.473   7.997  -2.032  0.00  0.00     0.096 N 
ATOM     28  C24 <0> d   1      -2.484   9.053  -3.054  0.00  0.00     0.303 C 
ATOM     29  C23 <0> d   1      -3.930   9.453  -3.355  0.00  0.00     0.302 C 
ATOM     30  N2  <0> d   1      -4.677   8.273  -3.813  0.00  0.00     0.093 N 
ATOM     31  C22 <0> d   1      -4.666   7.217  -2.791  0.00  0.00     0.302 C 
ATOM     32  C21 <0> d   1      -3.220   6.817  -2.490  0.00  0.00     0.303 C 
BRANCH  30  33
ATOM     33  C25 <0> d   1      -6.052   8.632  -4.185  0.00  0.00     0.298 C 
BRANCH  33  34
ATOM     34  C26 <0> d   1      -6.045   9.340  -5.541  0.00  0.00     0.194 C 
BRANCH  34  35
ATOM     35  O6  <0> d   1      -5.598   8.433  -6.550  0.00  0.00    -0.399 OA
ATOM     36  H28 <0> d   1      -5.527   8.766  -7.596  0.00  0.00     0.209 HD
ENDBRANCH  34  35
ENDBRANCH  33  34
ENDBRANCH  30  33
ENDBRANCH  26  27
ENDBRANCH  11  26
BRANCH  10  37
ATOM     37  O7  <0> d   1      -1.009   8.636   0.973  0.00  0.00    -0.360 OA
ATOM     38  H29 <0> d   1      -0.991   9.288   0.087  0.00  0.00     0.217 HD
ENDBRANCH  10  37
TORSDOF 12
