REMARK  7 active torsions:
REMARK  status: ('A' for Active; 'I' for Inactive)
REMARK    1  A    between atoms: C5_5  and  C18_21 
REMARK    2  A    between atoms: C10_11  and  C11_12 
REMARK    3  A    between atoms: C15_16  and  O2_18 
REMARK    4  A    between atoms: C18_21  and  N1_22 
REMARK    5  A    between atoms: N2_25  and  C23_28 
REMARK    6  A    between atoms: C23_28  and  C24_29 
REMARK    7  A    between atoms: C24_29  and  O4_30 
ROOT
ATOM      1  C1  <0> d   1       2.653   1.050  -1.378  0.00  0.00     0.049 C 
ATOM      2  C2  <0> d   1       1.402   1.857  -1.146  0.00  0.00    -0.042 A 
ATOM      3  C3  <0> d   1       0.196   1.228  -1.010  0.00  0.00     0.048 A 
ATOM      4  C4  <0> d   1      -0.961   1.972  -0.800  0.00  0.00     0.118 A 
ATOM      5  C5  <0> d   1      -0.905   3.354  -0.715  0.00  0.00     0.041 A 
ATOM      6  C6  <0> d   1       0.312   4.010  -0.852  0.00  0.00     0.102 A 
ATOM      7  C7  <0> d   1       1.472   3.249  -1.069  0.00  0.00     0.057 A 
ATOM      8  C8  <0> d   1       2.586   4.209  -1.171  0.00  0.00     0.219 A 
ATOM      9  O1  <0> d   1       3.765   3.966  -1.359  0.00  0.00    -0.284 OA
ATOM     10  C9  <0> d   1       1.954   5.527  -0.997  0.00  0.00     0.128 A 
ATOM     11  C10 <0> d   1       2.585   6.727  -1.014  0.00  0.00     0.053 C 
ATOM     12  O3  <0> d   1       0.628   5.323  -0.816  0.00  0.00    -0.305 OA
ATOM     13  O5  <0> d   1      -2.155   1.338  -0.672  0.00  0.00    -0.191 OA
ENDROOT
BRANCH   5  14
ATOM     14  C18 <0> d   1      -2.166   4.147  -0.481  0.00  0.00     0.317 C 
BRANCH  14  15
ATOM     15  N1  <0> d   1      -2.775   4.489  -1.774  0.00  0.00     0.096 N 
ATOM     16  C22 <0> d   1      -4.120   5.052  -1.589  0.00  0.00     0.303 C 
ATOM     17  C21 <0> d   1      -4.750   5.320  -2.958  0.00  0.00     0.302 C 
ATOM     18  N2  <0> d   1      -3.894   6.245  -3.715  0.00  0.00     0.093 N 
ATOM     19  C20 <0> d   1      -2.549   5.682  -3.900  0.00  0.00     0.302 C 
ATOM     20  C19 <0> d   1      -1.919   5.413  -2.531  0.00  0.00     0.303 C 
BRANCH  18  21
ATOM     21  C23 <0> d   1      -4.503   6.587  -5.007  0.00  0.00     0.298 C 
BRANCH  21  22
ATOM     22  C24 <0> d   1      -4.453   5.370  -5.933  0.00  0.00     0.194 C 
BRANCH  22  23
ATOM     23  O4  <0> d   1      -5.301   4.343  -5.416  0.00  0.00    -0.399 OA
ATOM     24  H27 <0> d   1      -5.394   3.386  -5.950  0.00  0.00     0.209 HD
ENDBRANCH  22  23
ENDBRANCH  21  22
ENDBRANCH  18  21
ENDBRANCH  14  15
ENDBRANCH   5  14
BRANCH  11  25
ATOM     25  C11 <0> d   1       1.804   7.969  -0.933  0.00  0.00    -0.031 A 
ATOM     26  C16 <0> d   1       0.427   7.919  -0.692  0.00  0.00     0.048 A 
ATOM     27  C15 <0> d   1      -0.301   9.094  -0.618  0.00  0.00     0.069 A 
ATOM     28  C14 <0> d   1       0.335  10.318  -0.784  0.00  0.00     0.037 A 
ATOM     29  C13 <0> d   1       1.697  10.371  -1.022  0.00  0.00     0.004 A 
ATOM     30  C12 <0> d   1       2.435   9.208  -1.092  0.00  0.00     0.011 A 
BRANCH  27  31
ATOM     31  O2  <0> d   1      -1.639   9.050  -0.384  0.00  0.00    -0.356 OA
ATOM     32  C17 <0> d   1      -2.327  10.301  -0.320  0.00  0.00     0.210 C 
ENDBRANCH  27  31
ENDBRANCH  11  25
TORSDOF 7
