REMARK  6 active torsions:
REMARK  status: ('A' for Active; 'I' for Inactive)
REMARK    1  A    between atoms: C4_4  and  O5_31 
REMARK    2  A    between atoms: C5_5  and  C19_23 
REMARK    3  A    between atoms: C10_11  and  C11_12 
REMARK    4  A    between atoms: C13_14  and  O3_20 
REMARK    5  A    between atoms: C16_17  and  O2_18 
REMARK    6  A    between atoms: C19_23  and  N1_24 
ROOT
ATOM      1  C1  <0> d   1       2.549   7.790   2.304  0.00  0.00     0.049 C 
ATOM      2  C2  <0> d   1       2.534   6.305   2.049  0.00  0.00    -0.042 A 
ATOM      3  C3  <0> d   1       2.287   5.830   0.792  0.00  0.00     0.045 A 
ATOM      4  C4  <0> d   1       2.279   4.458   0.552  0.00  0.00     0.077 A 
ATOM      5  C5  <0> d   1       2.507   3.561   1.583  0.00  0.00     0.038 A 
ATOM      6  C6  <0> d   1       2.759   4.028   2.867  0.00  0.00     0.102 A 
ATOM      7  C7  <0> d   1       2.771   5.414   3.095  0.00  0.00     0.057 A 
ATOM      8  C8  <0> d   1       3.062   5.596   4.529  0.00  0.00     0.219 A 
ATOM      9  O1  <0> d   1       3.162   6.645   5.143  0.00  0.00    -0.284 OA
ATOM     10  C9  <0> d   1       3.204   4.230   5.053  0.00  0.00     0.128 A 
ATOM     11  C10 <0> d   1       3.478   3.889   6.339  0.00  0.00     0.055 C 
ATOM     12  O4  <0> d   1       3.013   3.374   4.021  0.00  0.00    -0.305 OA
ENDROOT
BRANCH  11  13
ATOM     13  C11 <0> d   1       3.435   2.480   6.748  0.00  0.00     0.003 A 
ATOM     14  C16 <0> d   1       3.355   2.143   8.110  0.00  0.00     0.078 A 
ATOM     15  C15 <0> d   1       3.316   0.810   8.487  0.00  0.00     0.040 A 
ATOM     16  C14 <0> d   1       3.355  -0.184   7.529  0.00  0.00     0.039 A 
ATOM     17  C13 <0> d   1       3.433   0.142   6.179  0.00  0.00     0.069 A 
ATOM     18  C12 <0> d   1       3.469   1.465   5.785  0.00  0.00     0.051 A 
BRANCH  14  19
ATOM     19  O2  <0> d   1       3.317   3.119   9.052  0.00  0.00    -0.355 OA
ATOM     20  C17 <0> d   1       3.236   2.700  10.416  0.00  0.00     0.210 C 
ENDBRANCH  14  19
BRANCH  17  21
ATOM     21  O3  <0> d   1       3.471  -0.846   5.245  0.00  0.00    -0.356 OA
ATOM     22  C18 <0> d   1       3.425  -2.192   5.722  0.00  0.00     0.210 C 
ENDBRANCH  17  21
ENDBRANCH  11  13
BRANCH   5  23
ATOM     23  C19 <0> d   1       2.488   2.079   1.310  0.00  0.00     0.317 C 
BRANCH  23  24
ATOM     24  N1  <0> d   1       1.126   1.564   1.500  0.00  0.00     0.096 N 
ATOM     25  C23 <0> d   1       1.110   0.095   1.477  0.00  0.00     0.300 C 
ATOM     26  C22 <0> d   1      -0.310  -0.403   1.756  0.00  0.00     0.264 C 
ATOM     27  N2  <0> d   1      -1.226   0.147   0.748  0.00  0.00    -0.072 N 
ATOM     28  C21 <0> d   1      -1.211   1.616   0.771  0.00  0.00     0.264 C 
ATOM     29  C24 <0> d   1      -2.588  -0.369   0.937  0.00  0.00     0.269 C 
ATOM     30  H28 <0> d   1      -0.877  -0.180  -0.243  0.00  0.00     0.279 HD
ATOM     31  C20 <0> d   1       0.209   2.114   0.491  0.00  0.00     0.300 C 
ENDBRANCH  23  24
ENDBRANCH   5  23
BRANCH   4  32
ATOM     32  O5  <0> d   1       2.039   3.996  -0.701  0.00  0.00    -0.360 OA
ATOM     33  H29 <0> d   1       2.031   2.914  -0.896  0.00  0.00     0.217 HD
ENDBRANCH   4  32
TORSDOF 6
