REMARK  7 active torsions:
REMARK  status: ('A' for Active; 'I' for Inactive)
REMARK    1  A    between atoms: N1_2  and  C2_3 
REMARK    2  A    between atoms: N1_2  and  C9_10 
REMARK    3  A    between atoms: C2_3  and  C3_4 
REMARK    4  A    between atoms: C9_10  and  C10_11 
REMARK    5  A    between atoms: C17_19  and  O3_22 
REMARK    6  A    between atoms: O3_22  and  C19_23 
REMARK    7  A    between atoms: C22_26  and  O4_29 
ROOT
ATOM      1  C10 <0> d   1       1.264  -0.459   1.286  0.00  0.00     0.039 A 
ATOM      2  C11 <0> d   1       0.063   0.229   1.223  0.00  0.00     0.118 A 
ATOM      3  C12 <0> d   1       0.030   1.562   0.820  0.00  0.00     0.041 A 
ATOM      4  C13 <0> d   1       1.184   2.209   0.480  0.00  0.00     0.021 A 
ATOM      5  C14 <0> d   1       2.402   1.530   0.538  0.00  0.00     0.051 A 
ATOM      6  C15 <0> d   1       2.445   0.184   0.944  0.00  0.00     0.100 A 
ATOM      7  O1  <0> d   1       3.627  -0.462   0.996  0.00  0.00    -0.318 OA
ATOM      8  C16 <0> d   1       4.784   0.131   0.673  0.00  0.00     0.184 A 
ATOM      9  C17 <0> d   1       4.858   1.416   0.272  0.00  0.00     0.149 A 
ATOM     10  C18 <0> d   1       3.668   2.193   0.180  0.00  0.00     0.220 A 
ATOM     11  O2  <0> d   1       3.696   3.358  -0.179  0.00  0.00    -0.284 OA
ATOM     12  O5  <0> d   1      -1.091  -0.402   1.558  0.00  0.00    -0.191 OA
ENDROOT
BRANCH   1  13
ATOM     13  C9  <0> d   1       1.287  -1.901   1.724  0.00  0.00     0.279 C 
BRANCH  13  14
ATOM     14  N1  <0> d   1       1.133  -2.772   0.551  0.00  0.00    -0.067 N 
ATOM     15  C1  <0> d   1       2.292  -2.659  -0.344  0.00  0.00     0.270 C 
ATOM     16  H23 <0> d   1       0.244  -2.437  -0.004  0.00  0.00     0.280 HD
BRANCH  14  17
ATOM     17  C2  <0> d   1       0.914  -4.167   0.956  0.00  0.00     0.273 C 
BRANCH  17  18
ATOM     18  C3  <0> d   1       0.518  -4.983  -0.247  0.00  0.00    -0.033 A 
ATOM     19  C8  <0> d   1       1.489  -5.601  -1.013  0.00  0.00     0.009 A 
ATOM     20  C7  <0> d   1       1.125  -6.350  -2.117  0.00  0.00     0.001 A 
ATOM     21  C6  <0> d   1      -0.208  -6.481  -2.455  0.00  0.00     0.000 A 
ATOM     22  C5  <0> d   1      -1.179  -5.864  -1.688  0.00  0.00     0.001 A 
ATOM     23  C4  <0> d   1      -0.817  -5.119  -0.582  0.00  0.00     0.009 A 
ENDBRANCH  17  18
ENDBRANCH  14  17
ENDBRANCH  13  14
ENDBRANCH   1  13
BRANCH   9  24
ATOM     24  O3  <0> d   1       6.062   1.967  -0.044  0.00  0.00    -0.305 OA
BRANCH  24  25
ATOM     25  C19 <0> d   1       7.167   1.181   0.047  0.00  0.00     0.076 A 
ATOM     26  C24 <0> d   1       7.585   0.442  -1.051  0.00  0.00     0.040 A 
ATOM     27  C23 <0> d   1       8.708  -0.356  -0.958  0.00  0.00     0.039 A 
ATOM     28  C22 <0> d   1       9.418  -0.420   0.232  0.00  0.00     0.068 A 
ATOM     29  C21 <0> d   1       9.000   0.317   1.329  0.00  0.00     0.039 A 
ATOM     30  C20 <0> d   1       7.880   1.121   1.236  0.00  0.00     0.040 A 
BRANCH  28  31
ATOM     31  O4  <0> d   1      10.524  -1.206   0.322  0.00  0.00    -0.356 OA
ATOM     32  C25 <0> d   1      11.206  -1.224   1.577  0.00  0.00     0.210 C 
ENDBRANCH  28  31
ENDBRANCH  24  25
ENDBRANCH   9  24
TORSDOF 7
