REMARK  5 active torsions:
REMARK  status: ('A' for Active; 'I' for Inactive)
REMARK    1  A    between atoms: C2_2  and  C4_4 
REMARK    2  A    between atoms: C10_10  and  C13_15 
REMARK    3  A    between atoms: C13_15  and  N1_16 
REMARK    4  A    between atoms: N2_19  and  C18_22 
REMARK    5  A    between atoms: C18_22  and  C19_23 
ROOT
ATOM      1  N1  <0> d   1       8.052  -2.652   0.030  0.00  0.00     0.096 N 
ATOM      2  C14 <0> d   1       8.359  -1.292   0.496  0.00  0.00     0.303 C 
ATOM      3  C15 <0> d   1       7.340  -0.879   1.560  0.00  0.00     0.303 C 
ATOM      4  N2  <0> d   1       5.987  -0.944   0.991  0.00  0.00     0.096 N 
ATOM      5  C16 <0> d   1       5.680  -2.304   0.525  0.00  0.00     0.303 C 
ATOM      6  C17 <0> d   1       6.699  -2.717  -0.539  0.00  0.00     0.303 C 
ENDROOT
BRANCH   1   7
ATOM      7  C13 <0> d   1       9.054  -3.114  -0.940  0.00  0.00     0.312 C 
BRANCH   7   8
ATOM      8  C10 <0> d   1       8.654  -4.468  -1.469  0.00  0.00    -0.011 A 
ATOM      9  C8  <0> d   1       8.786  -5.670  -0.640  0.00  0.00     0.007 A 
ATOM     10  C7  <0> d   1       8.400  -6.912  -1.174  0.00  0.00     0.090 A 
ATOM     11  C9  <0> d   1       9.288  -5.595   0.663  0.00  0.00     0.022 A 
ATOM     12  C6  <0> d   1       8.523  -8.055  -0.395  0.00  0.00     0.039 A 
ATOM     13  O2  <0> d   1       7.916  -6.981  -2.432  0.00  0.00    -0.275 OA
ATOM     14  C5  <0> d   1       9.020  -7.961   0.888  0.00  0.00     0.010 A 
ATOM     15  C4  <0> d   1       9.400  -6.733   1.411  0.00  0.00    -0.054 A 
ATOM     16  C12 <0> d   1       7.791  -5.885  -3.196  0.00  0.00     0.288 A 
ATOM     17  C11 <0> d   1       8.155  -4.606  -2.724  0.00  0.00     0.092 A 
ATOM     18  O1  <0> d   1       7.348  -5.997  -4.326  0.00  0.00    -0.260 OA
BRANCH  15  19
ATOM     19  C2  <0> d   1       9.940  -6.654   2.816  0.00  0.00     0.010 C 
ATOM     20  C1  <0> d   1       8.884  -7.168   3.798  0.00  0.00     0.015 C 
ATOM     21  C3  <0> d   1      11.201  -7.513   2.927  0.00  0.00     0.015 C 
ENDBRANCH  15  19
ENDBRANCH   7   8
ENDBRANCH   1   7
BRANCH   4  22
ATOM     22  C18 <0> d   1       4.985  -0.481   1.961  0.00  0.00     0.311 C 
BRANCH  22  23
ATOM     23  C19 <0> d   1       3.653  -0.329   1.273  0.00  0.00    -0.027 A 
ATOM     24  C24 <0> d   1       3.311   0.878   0.692  0.00  0.00     0.048 A 
ATOM     25  C23 <0> d   1       2.087   1.021   0.059  0.00  0.00     0.105 A 
ATOM     26  C22 <0> d   1       1.204  -0.054   0.009  0.00  0.00     0.105 A 
ATOM     27  O3  <0> d   1       1.518   2.084  -0.581  0.00  0.00    -0.323 OA
ATOM     28  C21 <0> d   1       1.553  -1.261   0.594  0.00  0.00     0.040 A 
ATOM     29  O4  <0> d   1       0.081   0.335  -0.662  0.00  0.00    -0.323 OA
ATOM     30  C20 <0> d   1       2.776  -1.396   1.224  0.00  0.00     0.012 A 
ATOM     31  C25 <0> d   1       0.114   1.774  -0.665  0.00  0.00     0.352 C 
ENDBRANCH  22  23
ENDBRANCH   4  22
TORSDOF 5
