REMARK  7 active torsions:
REMARK  status: ('A' for Active; 'I' for Inactive)
REMARK    1  A    between atoms: C3_3  and  O3_25 
REMARK    2  A    between atoms: C6_6  and  C8_9 
REMARK    3  A    between atoms: C7_7  and  O1_8 
REMARK    4  A    between atoms: C8_9  and  C9_11 
REMARK    5  A    between atoms: C9_11  and  N1_12 
REMARK    6  A    between atoms: N2_15  and  C14_18 
REMARK    7  A    between atoms: C14_18  and  C15_19 
ROOT
ATOM      1  N1  <0> d   1       0.084  -4.880   3.788  0.00  0.00     0.099 N 
ATOM      2  C10 <0> d   1       1.338  -4.530   4.468  0.00  0.00     0.300 C 
ATOM      3  C11 <0> d   1       1.287  -5.028   5.914  0.00  0.00     0.265 C 
ATOM      4  N2  <0> d   1       1.094  -6.484   5.924  0.00  0.00    -0.064 N 
ATOM      5  C12 <0> d   1      -0.175  -6.817   5.263  0.00  0.00     0.265 C 
ATOM      6  C13 <0> d   1      -0.135  -6.334   3.812  0.00  0.00     0.300 C 
ATOM      7  H25 <0> d   1       1.855  -6.928   5.433  0.00  0.00     0.280 HD
ENDROOT
BRANCH   1   8
ATOM      8  C9  <0> d   1       0.071  -4.369   2.411  0.00  0.00     0.356 C 
BRANCH   8   9
ATOM      9  C8  <0> d   1       0.051  -2.862   2.435  0.00  0.00     0.190 C 
ATOM     10  O2  <0> d   1       0.048  -2.272   3.495  0.00  0.00    -0.290 OA
BRANCH   9  11
ATOM     11  C6  <0> d   1       0.036  -2.110   1.178  0.00  0.00     0.045 A 
ATOM     12  C5  <0> d   1       0.040  -2.787  -0.049  0.00  0.00     0.021 A 
ATOM     13  C4  <0> d   1       0.025  -2.084  -1.218  0.00  0.00     0.038 A 
ATOM     14  C3  <0> d   1       0.006  -0.692  -1.203  0.00  0.00     0.074 A 
ATOM     15  C2  <0> d   1       0.002  -0.004   0.002  0.00  0.00     0.005 A 
ATOM     16  C1  <0> d   1      -0.018   1.503   0.010  0.00  0.00     0.054 C 
ATOM     17  C7  <0> d   1       0.023  -0.703   1.196  0.00  0.00     0.088 A 
BRANCH  14  18
ATOM     18  O3  <0> d   1      -0.010  -0.005  -2.373  0.00  0.00    -0.360 OA
ATOM     19  H24 <0> d   1       0.869   0.207  -2.716  0.00  0.00     0.217 HD
ENDBRANCH  14  18
BRANCH  17  20
ATOM     20  O1  <0> d   1       0.025  -0.036   2.377  0.00  0.00    -0.359 OA
ATOM     21  H6  <0> d   1      -0.858   0.145   2.728  0.00  0.00     0.217 HD
ENDBRANCH  17  20
ENDBRANCH   9  11
ENDBRANCH   8   9
ENDBRANCH   1   8
BRANCH   4  22
ATOM     22  C14 <0> d   1       1.062  -6.964   7.312  0.00  0.00     0.273 C 
BRANCH  22  23
ATOM     23  C15 <0> d   1       0.988  -8.469   7.322  0.00  0.00    -0.033 A 
ATOM     24  C20 <0> d   1       2.150  -9.219   7.333  0.00  0.00     0.009 A 
ATOM     25  C19 <0> d   1       2.082 -10.599   7.346  0.00  0.00     0.001 A 
ATOM     26  C18 <0> d   1       0.852 -11.231   7.339  0.00  0.00     0.000 A 
ATOM     27  C17 <0> d   1      -0.310 -10.481   7.323  0.00  0.00     0.001 A 
ATOM     28  C16 <0> d   1      -0.241  -9.101   7.314  0.00  0.00     0.009 A 
ENDBRANCH  22  23
ENDBRANCH   4  22
TORSDOF 7
