REMARK  6 active torsions:
REMARK  status: ('A' for Active; 'I' for Inactive)
REMARK    1  A    between atoms: C3_3  and  C5_6 
REMARK    2  A    between atoms: C12_14  and  C14_17 
REMARK    3  A    between atoms: C14_17  and  N1_18 
REMARK    4  A    between atoms: N2_21  and  C19_24 
REMARK    5  A    between atoms: C19_24  and  C20_25 
REMARK    6  A    between atoms: C20_25  and  O4_26 
ROOT
ATOM      1  C5  <0> d   1      -2.339  -0.921   0.183  0.00  0.00     0.078 C 
ATOM      2  C6  <0> d   1      -1.119  -0.314   0.135  0.00  0.00     0.129 A 
ATOM      3  C7  <0> d   1       0.138  -0.977   0.107  0.00  0.00     0.218 A 
ATOM      4  O2  <0> d   1       0.342  -2.179   0.121  0.00  0.00    -0.284 OA
ATOM      5  C8  <0> d   1       1.141   0.101   0.057  0.00  0.00     0.051 A 
ATOM      6  C9  <0> d   1       2.536   0.114   0.012  0.00  0.00     0.021 A 
ATOM      7  C10 <0> d   1       3.203   1.306  -0.029  0.00  0.00     0.041 A 
ATOM      8  C11 <0> d   1       2.497   2.506  -0.027  0.00  0.00     0.118 A 
ATOM      9  C12 <0> d   1       1.112   2.507   0.016  0.00  0.00     0.041 A 
ATOM     10  C13 <0> d   1       0.419   1.305   0.058  0.00  0.00     0.101 A 
ATOM     11  O3  <0> d   1      -0.900   1.021   0.104  0.00  0.00    -0.305 OA
ATOM     12  O5  <0> d   1       3.171   3.683  -0.069  0.00  0.00    -0.191 OA
ENDROOT
BRANCH   9  13
ATOM     13  C14 <0> d   1       0.359   3.813   0.017  0.00  0.00     0.317 C 
BRANCH  13  14
ATOM     14  N1  <0> d   1       0.158   4.261   1.401  0.00  0.00     0.096 N 
ATOM     15  C18 <0> d   1      -0.359   5.636   1.440  0.00  0.00     0.303 C 
ATOM     16  C17 <0> d   1      -0.479   6.092   2.896  0.00  0.00     0.302 C 
ATOM     17  N2  <0> d   1      -1.371   5.177   3.621  0.00  0.00     0.093 N 
ATOM     18  C16 <0> d   1      -0.855   3.802   3.582  0.00  0.00     0.302 C 
ATOM     19  C15 <0> d   1      -0.735   3.346   2.127  0.00  0.00     0.303 C 
BRANCH  17  20
ATOM     20  C19 <0> d   1      -1.573   5.625   5.005  0.00  0.00     0.298 C 
BRANCH  20  21
ATOM     21  C20 <0> d   1      -2.534   6.816   5.022  0.00  0.00     0.194 C 
BRANCH  21  22
ATOM     22  O4  <0> d   1      -3.820   6.395   4.562  0.00  0.00    -0.399 OA
ATOM     23  H21 <0> d   1      -4.647   7.119   4.504  0.00  0.00     0.209 HD
ENDBRANCH  21  22
ENDBRANCH  20  21
ENDBRANCH  17  20
ENDBRANCH  13  14
ENDBRANCH   9  13
BRANCH   1  24
ATOM     24  C3  <0> d   1      -3.516  -0.141   0.206  0.00  0.00     0.077 A 
ATOM     25  C2  <0> d   1      -4.811  -0.621   0.254  0.00  0.00     0.039 A 
ATOM     26  C1  <0> d   1      -5.652   0.502   0.261  0.00  0.00     0.027 A 
ATOM     27  C4  <0> d   1      -4.860   1.596   0.217  0.00  0.00     0.142 A 
ATOM     28  O1  <0> d   1      -3.577   1.208   0.190  0.00  0.00    -0.323 OA
ENDBRANCH   1  24
TORSDOF 6
