REMARK  7 active torsions:
REMARK  status: ('A' for Active; 'I' for Inactive)
REMARK    1  A    between atoms: N2_5  and  C6_8 
REMARK    2  A    between atoms: C6_8  and  C7_9 
REMARK    3  A    between atoms: C8_10  and  O3_25 
REMARK    4  A    between atoms: C11_13  and  C13_16 
REMARK    5  A    between atoms: C12_14  and  O1_15 
REMARK    6  A    between atoms: C13_16  and  C14_18 
REMARK    7  A    between atoms: C14_18  and  C15_19 
ROOT
ATOM      1  C7  <0> d   1       6.976  -2.534  -3.334  0.00  0.00     0.037 A 
ATOM      2  C8  <0> d   1       7.763  -2.974  -2.280  0.00  0.00     0.076 A 
ATOM      3  C9  <0> d   1       7.365  -2.752  -0.964  0.00  0.00     0.038 A 
ATOM      4  C10 <0> d   1       6.200  -2.093  -0.697  0.00  0.00     0.021 A 
ATOM      5  C11 <0> d   1       5.390  -1.646  -1.749  0.00  0.00     0.044 A 
ATOM      6  C12 <0> d   1       5.789  -1.870  -3.079  0.00  0.00     0.090 A 
ENDROOT
BRANCH   1   7
ATOM      7  C6  <0> d   1       7.413  -2.779  -4.755  0.00  0.00     0.317 C 
BRANCH   7   8
ATOM      8  N2  <0> d   1       8.231  -1.650  -5.218  0.00  0.00     0.096 N 
ATOM      9  C3  <0> d   1       8.870  -1.956  -6.506  0.00  0.00     0.300 C 
ATOM     10  C2  <0> d   1       9.774  -0.789  -6.913  0.00  0.00     0.264 C 
ATOM     11  N1  <0> d   1       8.972   0.439  -7.004  0.00  0.00    -0.072 N 
ATOM     12  C1  <0> d   1       9.790   1.568  -7.467  0.00  0.00     0.269 C 
ATOM     13  C5  <0> d   1       8.333   0.744  -5.716  0.00  0.00     0.264 C 
ATOM     14  H25 <0> d   1       8.178   0.272  -7.746  0.00  0.00     0.279 HD
ATOM     15  C4  <0> d   1       7.430  -0.422  -5.309  0.00  0.00     0.300 C 
ENDBRANCH   7   8
ENDBRANCH   1   7
BRANCH   6  16
ATOM     16  O1  <0> d   1       5.015  -1.438  -4.106  0.00  0.00    -0.359 OA
ATOM     17  H24 <0> d   1       4.072  -0.910  -3.899  0.00  0.00     0.217 HD
ENDBRANCH   6  16
BRANCH   2  18
ATOM     18  O3  <0> d   1       8.927  -3.625  -2.532  0.00  0.00    -0.360 OA
ATOM     19  H23 <0> d   1       9.553  -3.975  -1.698  0.00  0.00     0.217 HD
ENDBRANCH   2  18
BRANCH   5  20
ATOM     20  C13 <0> d   1       4.135  -0.945  -1.465  0.00  0.00     0.166 C 
ATOM     21  O2  <0> d   1       3.438  -0.555  -2.378  0.00  0.00    -0.292 OA
BRANCH  20  22
ATOM     22  C14 <0> d   1       3.711  -0.707  -0.039  0.00  0.00     0.122 C 
BRANCH  22  23
ATOM     23  C15 <0> d   1       2.396   0.029  -0.022  0.00  0.00    -0.051 A 
ATOM     24  C20 <0> d   1       2.377   1.411  -0.014  0.00  0.00     0.007 A 
ATOM     25  C19 <0> d   1       1.171   2.086   0.002  0.00  0.00     0.001 A 
ATOM     26  C18 <0> d   1      -0.017   1.378   0.010  0.00  0.00     0.000 A 
ATOM     27  C17 <0> d   1       0.002  -0.004   0.002  0.00  0.00     0.001 A 
ATOM     28  C16 <0> d   1       1.208  -0.679  -0.014  0.00  0.00     0.007 A 
ENDBRANCH  22  23
ENDBRANCH  20  22
ENDBRANCH   5  20
TORSDOF 7
