REMARK  5 active torsions:
REMARK  status: ('A' for Active; 'I' for Inactive)
REMARK    1  A    between atoms: C5_5  and  O1_7 
REMARK    2  A    between atoms: O1_7  and  C7_8 
REMARK    3  A    between atoms: N1_20  and  C18_23 
REMARK    4  A    between atoms: C18_23  and  C19_24 
REMARK    5  A    between atoms: C19_24  and  N2_25 
ROOT
ATOM      1  C7  <0> d   1       0.091  -2.777  -0.060  0.00  0.00     0.149 A 
ATOM      2  C8  <0> d   1      -1.108  -2.167  -0.128  0.00  0.00     0.184 A 
ATOM      3  O2  <0> d   1      -2.264  -2.842  -0.168  0.00  0.00    -0.318 OA
ATOM      4  C9  <0> d   1      -2.315  -4.189  -0.140  0.00  0.00     0.100 A 
ATOM      5  C10 <0> d   1      -1.123  -4.931  -0.072  0.00  0.00     0.051 A 
ATOM      6  C11 <0> d   1       0.155  -4.199  -0.035  0.00  0.00     0.220 A 
ATOM      7  O3  <0> d   1       1.223  -4.787   0.019  0.00  0.00    -0.284 OA
ATOM      8  C12 <0> d   1      -1.164  -6.326  -0.045  0.00  0.00     0.021 A 
ATOM      9  C13 <0> d   1      -2.368  -6.967  -0.085  0.00  0.00     0.038 A 
ATOM     10  C14 <0> d   1      -3.558  -6.240  -0.152  0.00  0.00     0.082 A 
ATOM     11  C15 <0> d   1      -3.532  -4.857  -0.177  0.00  0.00     0.038 A 
ATOM     12  C16 <0> d   1      -4.810  -4.061  -0.240  0.00  0.00     0.319 C 
ATOM     13  N1  <0> d   1      -5.912  -4.929  -0.680  0.00  0.00     0.117 N 
ATOM     14  C17 <0> d   1      -5.923  -6.172   0.109  0.00  0.00     0.447 C 
ATOM     15  O4  <0> d   1      -4.738  -6.913  -0.193  0.00  0.00    -0.321 OA
ENDROOT
BRANCH   1  16
ATOM     16  O1  <0> d   1       1.235  -2.039  -0.022  0.00  0.00    -0.303 OA
BRANCH  16  17
ATOM     17  C5  <0> d   1       1.975  -2.068   1.117  0.00  0.00     0.093 A 
ATOM     18  C4  <0> d   1       3.204  -1.426   1.164  0.00  0.00     0.044 A 
ATOM     19  C3  <0> d   1       3.955  -1.456   2.325  0.00  0.00     0.022 A 
ATOM     20 Br1  <0> d   1       3.852  -0.508  -0.357  0.00  0.00    -0.048 Br
ATOM     21  C2  <0> d   1       3.481  -2.126   3.438  0.00  0.00     0.002 A 
ATOM     22  C1  <0> d   1       2.256  -2.766   3.393  0.00  0.00     0.003 A 
ATOM     23  C6  <0> d   1       1.502  -2.739   2.236  0.00  0.00     0.039 A 
ENDBRANCH  16  17
ENDBRANCH   1  16
BRANCH  13  24
ATOM     24  C18 <0> d   1      -7.202  -4.233  -0.583  0.00  0.00     0.305 C 
BRANCH  24  25
ATOM     25  C19 <0> d   1      -8.283  -5.064  -1.275  0.00  0.00     0.302 C 
BRANCH  25  26
ATOM     26  N2  <0> d   1      -9.573  -4.368  -1.178  0.00  0.00     0.094 N 
ATOM     27  C23 <0> d   1     -10.585  -5.012  -2.029  0.00  0.00     0.298 C 
ATOM     28  C22 <0> d   1     -11.893  -4.222  -1.944  0.00  0.00     0.198 C 
ATOM     29  O5  <0> d   1     -12.307  -4.140  -0.578  0.00  0.00    -0.388 OA
ATOM     30  C21 <0> d   1     -11.346  -3.518   0.279  0.00  0.00     0.198 C 
ATOM     31  C20 <0> d   1     -10.032  -4.301   0.217  0.00  0.00     0.298 C 
ENDBRANCH  25  26
ENDBRANCH  24  25
ENDBRANCH  13  24
TORSDOF 5
