REMARK  6 active torsions:
REMARK  status: ('A' for Active; 'I' for Inactive)
REMARK    1  A    between atoms: C5_5  and  C7_7 
REMARK    2  A    between atoms: C14_15  and  C16_18 
REMARK    3  A    between atoms: C16_18  and  N1_19 
REMARK    4  A    between atoms: N2_22  and  C21_25 
REMARK    5  A    between atoms: C21_25  and  C22_26 
REMARK    6  A    between atoms: C22_26  and  O3_27 
ROOT
ATOM      1  C7  <0> d   1       4.282   3.939   8.305  0.00  0.00     0.054 C 
ATOM      2  C8  <0> d   1       3.857   4.597   7.197  0.00  0.00     0.128 A 
ATOM      3  C9  <0> d   1       3.511   6.025   7.113  0.00  0.00     0.218 A 
ATOM      4  O1  <0> d   1       3.544   6.854   8.005  0.00  0.00    -0.284 OA
ATOM      5  C10 <0> d   1       3.116   6.227   5.707  0.00  0.00     0.051 A 
ATOM      6  C11 <0> d   1       2.684   7.342   4.988  0.00  0.00     0.021 A 
ATOM      7  C12 <0> d   1       2.382   7.221   3.661  0.00  0.00     0.041 A 
ATOM      8  C13 <0> d   1       2.508   5.989   3.024  0.00  0.00     0.118 A 
ATOM      9  C14 <0> d   1       2.932   4.873   3.727  0.00  0.00     0.039 A 
ATOM     10  C15 <0> d   1       3.243   4.978   5.077  0.00  0.00     0.101 A 
ATOM     11  O2  <0> d   1       3.674   4.059   5.968  0.00  0.00    -0.305 OA
ATOM     12  O4  <0> d   1       2.211   5.881   1.704  0.00  0.00    -0.191 OA
ENDROOT
BRANCH   9  13
ATOM     13  C16 <0> d   1       3.060   3.545   3.026  0.00  0.00     0.279 C 
BRANCH  13  14
ATOM     14  N1  <0> d   1       1.789   2.815   3.124  0.00  0.00    -0.064 N 
ATOM     15  C20 <0> d   1       1.942   1.427   2.664  0.00  0.00     0.265 C 
ATOM     16  C19 <0> d   1       0.621   0.680   2.856  0.00  0.00     0.300 C 
ATOM     17  N2  <0> d   1      -0.441   1.367   2.107  0.00  0.00     0.093 N 
ATOM     18  C18 <0> d   1      -0.594   2.754   2.567  0.00  0.00     0.300 C 
ATOM     19  C17 <0> d   1       0.728   3.501   2.375  0.00  0.00     0.265 C 
ATOM     20  H23 <0> d   1       1.496   2.791   4.184  0.00  0.00     0.280 HD
BRANCH  17  21
ATOM     21  C21 <0> d   1      -1.712   0.636   2.205  0.00  0.00     0.298 C 
BRANCH  21  22
ATOM     22  C22 <0> d   1      -2.648   1.088   1.083  0.00  0.00     0.194 C 
BRANCH  22  23
ATOM     23  O3  <0> d   1      -2.102   0.699  -0.179  0.00  0.00    -0.399 OA
ATOM     24  H22 <0> d   1      -2.639   0.939  -1.109  0.00  0.00     0.209 HD
ENDBRANCH  22  23
ENDBRANCH  21  22
ENDBRANCH  17  21
ENDBRANCH  13  14
ENDBRANCH   9  13
BRANCH   1  25
ATOM     25  C5  <0> d   1       4.718   2.539   8.206  0.00  0.00    -0.012 A 
ATOM     26  C4  <0> d   1       4.827   1.753   9.360  0.00  0.00     0.044 A 
ATOM     27  C3  <0> d   1       5.232   0.437   9.257  0.00  0.00     0.024 A 
ATOM     28 Cl1  <0> d   1       4.448   2.428  10.913  0.00  0.00    -0.083 Cl
ATOM     29  C2  <0> d   1       5.540  -0.100   8.020  0.00  0.00     0.002 A 
ATOM     30  C1  <0> d   1       5.439   0.673   6.875  0.00  0.00     0.001 A 
ATOM     31  C6  <0> d   1       5.031   1.986   6.959  0.00  0.00     0.013 A 
ENDBRANCH   1  25
TORSDOF 6
