REMARK  5 active torsions:
REMARK  status: ('A' for Active; 'I' for Inactive)
REMARK    1  A    between atoms: C2_2  and  N1_3 
REMARK    2  A    between atoms: C4_5  and  C11_12 
REMARK    3  A    between atoms: C17_19  and  O3_31 
REMARK    4  A    between atoms: C18_20  and  C20_23 
REMARK    5  A    between atoms: C20_23  and  N2_24 
ROOT
ATOM      1  C11 <0> d   1      -1.840   1.184  -0.376  0.00  0.00     0.055 C 
ATOM      2  C12 <0> d   1      -0.612   1.770  -0.295  0.00  0.00     0.128 A 
ATOM      3  C13 <0> d   1       0.633   1.088  -0.281  0.00  0.00     0.218 A 
ATOM      4  O1  <0> d   1       0.820  -0.116  -0.338  0.00  0.00    -0.284 OA
ATOM      5  C14 <0> d   1       1.653   2.148  -0.190  0.00  0.00     0.051 A 
ATOM      6  C15 <0> d   1       3.047   2.138  -0.143  0.00  0.00     0.021 A 
ATOM      7  C16 <0> d   1       3.733   3.317  -0.058  0.00  0.00     0.038 A 
ATOM      8  C17 <0> d   1       3.045   4.527  -0.018  0.00  0.00     0.076 A 
ATOM      9  C18 <0> d   1       1.660   4.552  -0.064  0.00  0.00     0.036 A 
ATOM     10  C19 <0> d   1       0.949   3.363  -0.151  0.00  0.00     0.101 A 
ATOM     11  O2  <0> d   1      -0.374   3.101  -0.211  0.00  0.00    -0.305 OA
ENDROOT
BRANCH   1  12
ATOM     12  C4  <0> d   1      -3.045   2.011  -0.381  0.00  0.00    -0.005 A 
ATOM     13  C3  <0> d   1      -3.105   3.386  -0.304  0.00  0.00     0.103 A 
ATOM     14  N1  <0> d   1      -4.400   3.785  -0.340  0.00  0.00    -0.356 N 
ATOM     15  C6  <0> d   1      -5.241   2.694  -0.432  0.00  0.00     0.045 A 
ATOM     16  C5  <0> d   1      -4.441   1.540  -0.462  0.00  0.00     0.002 A 
ATOM     17  C7  <0> d   1      -6.625   2.565  -0.493  0.00  0.00     0.030 A 
ATOM     18  C10 <0> d   1      -5.032   0.283  -0.553  0.00  0.00     0.014 A 
ATOM     19  C9  <0> d   1      -6.404   0.176  -0.613  0.00  0.00     0.001 A 
ATOM     20  C8  <0> d   1      -7.196   1.315  -0.583  0.00  0.00     0.002 A 
BRANCH  14  21
ATOM     21  C2  <0> d   1      -4.846   5.179  -0.283  0.00  0.00     0.124 C 
ATOM     22  C1  <0> d   1      -5.179   5.550   1.164  0.00  0.00     0.027 C 
ENDBRANCH  14  21
ENDBRANCH   1  12
BRANCH   9  23
ATOM     23  C20 <0> d   1       0.927   5.868  -0.019  0.00  0.00     0.279 C 
BRANCH  23  24
ATOM     24  N2  <0> d   1       0.736   6.369  -1.387  0.00  0.00    -0.063 N 
ATOM     25  C25 <0> d   1      -0.092   7.581  -1.392  0.00  0.00     0.184 C 
ATOM     26  C24 <0> d   1      -0.390   7.990  -2.836  0.00  0.00     0.033 C 
ATOM     27  C26 <0> d   1      -1.406   7.304  -0.659  0.00  0.00     0.040 C 
ATOM     28  C23 <0> d   1       0.928   8.247  -3.571  0.00  0.00     0.004 C 
ATOM     29  C22 <0> d   1       1.792   6.985  -3.509  0.00  0.00     0.028 C 
ATOM     30  C21 <0> d   1       2.027   6.605  -2.046  0.00  0.00     0.235 C 
ATOM     31  H28 <0> d   1       0.203   5.596  -1.960  0.00  0.00     0.280 HD
ENDBRANCH  23  24
ENDBRANCH   9  23
BRANCH   8  32
ATOM     32  O3  <0> d   1       3.736   5.692   0.067  0.00  0.00    -0.360 OA
ATOM     33  H29 <0> d   1       3.197   6.651   0.099  0.00  0.00     0.217 HD
ENDBRANCH   8  32
TORSDOF 5
