REMARK  7 active torsions:
REMARK  status: ('A' for Active; 'I' for Inactive)
REMARK    1  A    between atoms: C3_3  and  C7_8 
REMARK    2  A    between atoms: C13_15  and  O4_29 
REMARK    3  A    between atoms: C14_16  and  C16_19 
REMARK    4  A    between atoms: C16_19  and  N1_20 
REMARK    5  A    between atoms: N2_23  and  C21_26 
REMARK    6  A    between atoms: C21_26  and  C22_27 
REMARK    7  A    between atoms: C22_27  and  O3_28 
ROOT
ATOM      1  C7  <0> d   1       0.405  -0.387  -0.799  0.00  0.00     0.053 C 
ATOM      2  C8  <0> d   1      -0.763  -1.037  -0.572  0.00  0.00     0.127 A 
ATOM      3  C9  <0> d   1      -0.945  -2.495  -0.489  0.00  0.00     0.218 A 
ATOM      4  O1  <0> d   1      -0.096  -3.361  -0.607  0.00  0.00    -0.284 OA
ATOM      5  C10 <0> d   1      -2.385  -2.673  -0.228  0.00  0.00     0.051 A 
ATOM      6  C11 <0> d   1      -3.191  -3.798  -0.046  0.00  0.00     0.021 A 
ATOM      7  C12 <0> d   1      -4.529  -3.648   0.180  0.00  0.00     0.038 A 
ATOM      8  C13 <0> d   1      -5.092  -2.375   0.227  0.00  0.00     0.076 A 
ATOM      9  C14 <0> d   1      -4.305  -1.249   0.047  0.00  0.00     0.038 A 
ATOM     10  C15 <0> d   1      -2.942  -1.384  -0.182  0.00  0.00     0.101 A 
ATOM     11  O2  <0> d   1      -1.975  -0.463  -0.385  0.00  0.00    -0.305 OA
ENDROOT
BRANCH   9  12
ATOM     12  C16 <0> d   1      -4.928   0.122   0.101  0.00  0.00     0.317 C 
BRANCH  12  13
ATOM     13  N1  <0> d   1      -5.366   0.513  -1.246  0.00  0.00     0.096 N 
ATOM     14  C20 <0> d   1      -6.186   1.732  -1.200  0.00  0.00     0.303 C 
ATOM     15  C19 <0> d   1      -6.686   2.061  -2.608  0.00  0.00     0.302 C 
ATOM     16  N2  <0> d   1      -5.536   2.237  -3.505  0.00  0.00     0.093 N 
ATOM     17  C18 <0> d   1      -4.716   1.019  -3.552  0.00  0.00     0.302 C 
ATOM     18  C17 <0> d   1      -4.215   0.690  -2.143  0.00  0.00     0.303 C 
BRANCH  16  19
ATOM     19  C21 <0> d   1      -5.974   2.629  -4.852  0.00  0.00     0.298 C 
BRANCH  19  20
ATOM     20  C22 <0> d   1      -6.654   1.440  -5.533  0.00  0.00     0.194 C 
BRANCH  20  21
ATOM     21  O3  <0> d   1      -7.873   1.135  -4.852  0.00  0.00    -0.399 OA
ATOM     22  H22 <0> d   1      -8.505   0.304  -5.200  0.00  0.00     0.209 HD
ENDBRANCH  20  21
ENDBRANCH  19  20
ENDBRANCH  16  19
ENDBRANCH  12  13
ENDBRANCH   9  12
BRANCH   8  23
ATOM     23  O4  <0> d   1      -6.424  -2.236   0.451  0.00  0.00    -0.360 OA
ATOM     24  H23 <0> d   1      -6.873  -1.233   0.490  0.00  0.00     0.217 HD
ENDBRANCH   8  23
BRANCH   1  25
ATOM     25  C3  <0> d   1       0.453   1.081  -0.739  0.00  0.00    -0.032 A 
ATOM     26  C2  <0> d   1      -0.727   1.818  -0.591  0.00  0.00     0.011 A 
ATOM     27  C1  <0> d   1      -0.674   3.195  -0.536  0.00  0.00     0.003 A 
ATOM     28  C6  <0> d   1       0.542   3.849  -0.626  0.00  0.00     0.024 A 
ATOM     29  C5  <0> d   1       1.716   3.127  -0.773  0.00  0.00     0.034 A 
ATOM     30  C4  <0> d   1       1.680   1.749  -0.824  0.00  0.00     0.035 A 
ATOM     31 Cl1  <0> d   1       3.235   3.959  -0.885  0.00  0.00    -0.084 Cl
ENDBRANCH   1  25
TORSDOF 7
