REMARK  5 active torsions:
REMARK  status: ('A' for Active; 'I' for Inactive)
REMARK    1  A    between atoms: O1_2  and  C2_3 
REMARK    2  A    between atoms: C5_6  and  C9_11 
REMARK    3  A    between atoms: C6_7  and  O2_9 
REMARK    4  A    between atoms: N1_23  and  C20_26 
REMARK    5  A    between atoms: C20_26  and  C21_27 
ROOT
ATOM      1  C9  <0> d   1       2.582  -2.532   4.300  0.00  0.00     0.053 C 
ATOM      2  C10 <0> d   1       1.995  -2.606   5.538  0.00  0.00     0.032 C 
ATOM      3  C11 <0> d   1       2.719  -3.230   6.588  0.00  0.00    -0.000 A 
ATOM      4  C12 <0> d   1       2.096  -3.511   7.813  0.00  0.00     0.017 A 
ATOM      5  C13 <0> d   1       2.793  -4.146   8.798  0.00  0.00     0.038 A 
ATOM      6  C14 <0> d   1       4.125  -4.515   8.604  0.00  0.00     0.082 A 
ATOM      7  C15 <0> d   1       4.761  -4.229   7.408  0.00  0.00     0.038 A 
ATOM      8  C16 <0> d   1       4.069  -3.576   6.399  0.00  0.00     0.100 A 
ATOM      9  O3  <0> d   1       4.694  -3.251   5.240  0.00  0.00    -0.273 OA
ATOM     10  C17 <0> d   1       3.912  -3.143   4.138  0.00  0.00     0.299 C 
ATOM     11  O4  <0> d   1       4.296  -3.534   3.052  0.00  0.00    -0.259 OA
ATOM     12  C18 <0> d   1       6.199  -4.623   7.184  0.00  0.00     0.320 C 
ATOM     13  N1  <0> d   1       6.838  -4.912   8.475  0.00  0.00     0.121 N 
ATOM     14  C19 <0> d   1       5.997  -5.827   9.264  0.00  0.00     0.448 C 
ATOM     15  O5  <0> d   1       4.785  -5.151   9.607  0.00  0.00    -0.321 OA
ENDROOT
BRANCH   1  16
ATOM     16  C5  <0> d   1       1.901  -1.866   3.166  0.00  0.00     0.014 A 
ATOM     17  C4  <0> d   1       1.837  -0.474   3.108  0.00  0.00     0.018 A 
ATOM     18  C3  <0> d   1       1.202   0.143   2.050  0.00  0.00     0.038 A 
ATOM     19  C2  <0> d   1       0.626  -0.618   1.041  0.00  0.00     0.070 A 
ATOM     20  C7  <0> d   1       0.680  -2.003   1.094  0.00  0.00     0.074 A 
ATOM     21  C6  <0> d   1       1.320  -2.632   2.149  0.00  0.00     0.082 A 
BRANCH  19  22
ATOM     22  O1  <0> d   1       0.002  -0.004   0.002  0.00  0.00    -0.356 OA
ATOM     23  C1  <0> d   1      -0.017   1.425   0.010  0.00  0.00     0.210 C 
ENDBRANCH  19  22
BRANCH  21  24
ATOM     24  O2  <0> d   1       1.379  -3.988   2.199  0.00  0.00    -0.355 OA
ATOM     25  C8  <0> d   1       0.764  -4.704   1.126  0.00  0.00     0.210 C 
ENDBRANCH  21  24
ENDBRANCH   1  16
BRANCH  13  26
ATOM     26  C20 <0> d   1       8.184  -5.468   8.284  0.00  0.00     0.332 C 
BRANCH  26  27
ATOM     27  C21 <0> d   1       8.899  -5.521   9.609  0.00  0.00     0.037 A 
ATOM     28  N2  <0> d   1       8.719  -6.557  10.405  0.00  0.00    -0.368 N 
ATOM     29  C25 <0> d   1       9.328  -6.649  11.572  0.00  0.00     0.088 A 
ATOM     30  H23 <0> d   1       8.127  -7.271  10.124  0.00  0.00     0.165 HD
ATOM     31  C24 <0> d   1      10.175  -5.648  12.008  0.00  0.00     0.017 A 
ATOM     32  C23 <0> d   1      10.384  -4.540  11.200  0.00  0.00     0.003 A 
ATOM     33  C22 <0> d   1       9.731  -4.481   9.979  0.00  0.00     0.027 A 
ENDBRANCH  26  27
ENDBRANCH  13  26
TORSDOF 5
