REMARK  9 active torsions:
REMARK  status: ('A' for Active; 'I' for Inactive)
REMARK    1  A    between atoms: C2_2  and  O1_3 
REMARK    2  A    between atoms: O1_3  and  C3_4 
REMARK       I    between atoms: C3_4  and  N1_6 
REMARK    3  A    between atoms: N2_9  and  C8_12 
REMARK    4  A    between atoms: C8_12  and  C9_13 
REMARK    5  A    between atoms: C10_14  and  O8_37 
REMARK    6  A    between atoms: C16_21  and  C17_22 
REMARK    7  A    between atoms: C19_24  and  O6_32 
REMARK    8  A    between atoms: C20_25  and  O5_30 
REMARK    9  A    between atoms: C21_26  and  O4_28 
ROOT
ATOM      1  C9  <0> d   1       1.850  -5.124  -6.556  0.00  0.00     0.036 A 
ATOM      2  C10 <0> d   1       2.996  -5.354  -7.301  0.00  0.00     0.076 A 
ATOM      3  C11 <0> d   1       3.235  -6.605  -7.864  0.00  0.00     0.045 A 
ATOM      4  C12 <0> d   1       2.339  -7.621  -7.686  0.00  0.00    -0.042 A 
ATOM      5  C13 <0> d   1       1.181  -7.404  -6.938  0.00  0.00     0.057 A 
ATOM      6  C14 <0> d   1       0.931  -6.148  -6.361  0.00  0.00     0.101 A 
ATOM      7  O3  <0> d   1      -0.238  -6.182  -5.685  0.00  0.00    -0.305 OA
ATOM      8  C15 <0> d   1      -0.822  -7.402  -5.752  0.00  0.00     0.128 A 
ATOM      9  C16 <0> d   1      -2.001  -7.759  -5.180  0.00  0.00     0.053 C 
ATOM     10  C26 <0> d   1       0.044  -8.265  -6.568  0.00  0.00     0.219 A 
ATOM     11  O7  <0> d   1      -0.133  -9.435  -6.862  0.00  0.00    -0.284 OA
ATOM     12  C27 <0> d   1       2.601  -8.974  -8.296  0.00  0.00     0.049 C 
ENDROOT
BRANCH   1  13
ATOM     13  C8  <0> d   1       1.604  -3.765  -5.953  0.00  0.00     0.279 C 
BRANCH  13  14
ATOM     14  N2  <0> d   1       2.198  -3.711  -4.611  0.00  0.00    -0.064 N 
ATOM     15  C5  <0> d   1       2.062  -2.351  -4.073  0.00  0.00     0.255 C 
ATOM     16  C4  <0> d   1       2.782  -2.263  -2.723  0.00  0.00     0.156 C 
ATOM     17  N1  <0> d   1       2.256  -3.320  -1.844  0.00  0.00    -0.325 N 
ATOM     18  C3  <0> d   1       1.835  -3.037  -0.596  0.00  0.00     0.362 C 
ATOM     19  C7  <0> d   1       2.208  -4.694  -2.365  0.00  0.00     0.156 C 
ATOM     20  O2  <0> d   1       1.409  -3.923   0.117  0.00  0.00    -0.238 OA
ATOM     21  C6  <0> d   1       1.511  -4.667  -3.734  0.00  0.00     0.255 C 
ATOM     22  H33 <0> d   1       3.176  -3.952  -4.669  0.00  0.00     0.280 HD
BRANCH  18  23
ATOM     23  O1  <0> d   1       1.887  -1.771  -0.138  0.00  0.00    -0.304 OA
BRANCH  23  24
ATOM     24  C2  <0> d   1       1.425  -1.544   1.195  0.00  0.00     0.176 C 
ATOM     25  C1  <0> d   1       1.561  -0.058   1.535  0.00  0.00     0.034 C 
ENDBRANCH  23  24
ENDBRANCH  18  23
ENDBRANCH  13  14
ENDBRANCH   1  13
BRANCH   2  26
ATOM     26  O8  <0> d   1       3.892  -4.351  -7.484  0.00  0.00    -0.360 OA
ATOM     27  H32 <0> d   1       4.578  -4.308  -6.805  0.00  0.00     0.217 HD
ENDBRANCH   2  26
BRANCH   9  28
ATOM     28  C17 <0> d   1      -2.427  -9.163  -5.192  0.00  0.00    -0.028 A 
ATOM     29  C22 <0> d   1      -3.770  -9.487  -5.418  0.00  0.00     0.051 A 
ATOM     30  C21 <0> d   1      -4.166 -10.811  -5.435  0.00  0.00     0.105 A 
ATOM     31  C20 <0> d   1      -3.233 -11.822  -5.216  0.00  0.00     0.135 A 
ATOM     32  C19 <0> d   1      -1.897 -11.503  -4.985  0.00  0.00     0.105 A 
ATOM     33  C18 <0> d   1      -1.492 -10.183  -4.973  0.00  0.00     0.051 A 
BRANCH  30  34
ATOM     34  O4  <0> d   1      -5.470 -11.127  -5.661  0.00  0.00    -0.353 OA
ATOM     35  C23 <0> d   1      -6.372 -10.040  -5.878  0.00  0.00     0.210 C 
ENDBRANCH  30  34
BRANCH  31  36
ATOM     36  O5  <0> d   1      -3.628 -13.122  -5.228  0.00  0.00    -0.351 OA
ATOM     37  C24 <0> d   1      -4.046 -13.684  -3.982  0.00  0.00     0.210 C 
ENDBRANCH  31  36
BRANCH  32  38
ATOM     38  O6  <0> d   1      -0.990 -12.494  -4.773  0.00  0.00    -0.353 OA
ATOM     39  C25 <0> d   1       0.363 -12.096  -4.543  0.00  0.00     0.210 C 
ENDBRANCH  32  38
ENDBRANCH   9  28
TORSDOF 9
