REMARK  7 active torsions:
REMARK  status: ('A' for Active; 'I' for Inactive)
REMARK    1  A    between atoms: O1_2  and  C2_3 
REMARK    2  A    between atoms: C5_6  and  C9_11 
REMARK    3  A    between atoms: C7_8  and  O2_9 
REMARK    4  A    between atoms: C11_14  and  N3_26 
REMARK    5  A    between atoms: C12_16  and  C13_17 
REMARK    6  A    between atoms: C16_20  and  O4_24 
REMARK    7  A    between atoms: C18_22  and  O3_23 
ROOT
ATOM      1  C9  <0> d   1       2.647  -2.333  -4.397  0.00  0.00     0.023 A 
ATOM      2  C10 <0> d   1       3.660  -3.272  -4.205  0.00  0.00     0.151 A 
ATOM      3  N1  <0> d   1       4.078  -3.989  -5.234  0.00  0.00    -0.075 NA
ATOM      4  C11 <0> d   1       3.551  -3.829  -6.440  0.00  0.00     0.720 A 
ATOM      5  N2  <0> d   1       2.588  -2.951  -6.674  0.00  0.00    -0.062 NA
ATOM      6  C12 <0> d   1       2.106  -2.193  -5.691  0.00  0.00     0.101 A 
ENDROOT
BRANCH   1   7
ATOM      7  C5  <0> d   1       2.149  -1.509  -3.271  0.00  0.00    -0.019 A 
ATOM      8  C4  <0> d   1       2.166  -0.117  -3.362  0.00  0.00     0.015 A 
ATOM      9  C3  <0> d   1       1.702   0.649  -2.313  0.00  0.00     0.040 A 
ATOM     10  C2  <0> d   1       1.217   0.039  -1.167  0.00  0.00     0.101 A 
ATOM     11  C7  <0> d   1       1.202  -1.350  -1.067  0.00  0.00     0.102 A 
ATOM     12  C6  <0> d   1       1.661  -2.123  -2.118  0.00  0.00     0.052 A 
BRANCH  10  13
ATOM     13  O1  <0> d   1       0.760   0.798  -0.135  0.00  0.00    -0.353 OA
ATOM     14  C1  <0> d   1       0.804   2.217  -0.304  0.00  0.00     0.210 C 
ENDBRANCH  10  13
BRANCH  11  15
ATOM     15  O2  <0> d   1       0.731  -1.946   0.061  0.00  0.00    -0.353 OA
ATOM     16  C8  <0> d   1       0.745  -3.374   0.094  0.00  0.00     0.210 C 
ENDBRANCH  11  15
ENDBRANCH   1   7
BRANCH   6  17
ATOM     17  C13 <0> d   1       1.025  -1.218  -5.954  0.00  0.00     0.028 A 
ATOM     18  C18 <0> d   1       1.138  -0.314  -7.018  0.00  0.00     0.081 A 
ATOM     19  C17 <0> d   1       0.121   0.593  -7.261  0.00  0.00     0.074 A 
ATOM     20  C16 <0> d   1      -1.001   0.611  -6.446  0.00  0.00     0.070 A 
ATOM     21  C15 <0> d   1      -1.112  -0.282  -5.386  0.00  0.00     0.038 A 
ATOM     22  C14 <0> d   1      -0.107  -1.192  -5.139  0.00  0.00     0.019 A 
BRANCH  18  23
ATOM     23  O3  <0> d   1       2.240  -0.330  -7.811  0.00  0.00    -0.360 OA
ATOM     24  H19 <0> d   1       2.165  -0.916  -8.576  0.00  0.00     0.217 HD
ENDBRANCH  18  23
BRANCH  20  25
ATOM     25  O4  <0> d   1      -1.996   1.505  -6.684  0.00  0.00    -0.356 OA
ATOM     26  C19 <0> d   1      -3.123   1.470  -5.807  0.00  0.00     0.210 C 
ENDBRANCH  20  25
ENDBRANCH   6  17
BRANCH   4  27
ATOM     27  N3  <0> d   1       4.022  -4.602  -7.487  0.00  0.00    -0.231 N 
ATOM     28  H17 <0> d   1       4.728  -5.250  -7.332  0.00  0.00     0.174 HD
ATOM     29  H18 <0> d   1       3.647  -4.497  -8.375  0.00  0.00     0.174 HD
ENDBRANCH   4  27
TORSDOF 7
