REMARK  6 active torsions:
REMARK  status: ('A' for Active; 'I' for Inactive)
REMARK    1  A    between atoms: C2_2  and  N1_3 
REMARK    2  A    between atoms: N1_3  and  C3_4 
REMARK    3  A    between atoms: N1_3  and  C5_6 
REMARK    4  A    between atoms: C5_6  and  C6_7 
REMARK    5  A    between atoms: C7_8  and  O3_28 
REMARK    6  A    between atoms: C13_15  and  C14_16 
ROOT
ATOM      1  C6  <0> d   1       2.212  10.167   0.060  0.00  0.00     0.036 A 
ATOM      2  C7  <0> d   1       1.972  11.532   0.066  0.00  0.00     0.076 A 
ATOM      3  C8  <0> d   1       0.669  12.021   0.038  0.00  0.00     0.038 A 
ATOM      4  C9  <0> d   1      -0.390  11.158   0.003  0.00  0.00     0.021 A 
ATOM      5  C10 <0> d   1      -0.164   9.782  -0.003  0.00  0.00     0.051 A 
ATOM      6  C11 <0> d   1       1.147   9.277   0.026  0.00  0.00     0.101 A 
ATOM      7  O1  <0> d   1       1.094   7.928   0.013  0.00  0.00    -0.305 OA
ATOM      8  C12 <0> d   1      -0.184   7.483  -0.023  0.00  0.00     0.128 A 
ATOM      9  C13 <0> d   1      -0.573   6.177  -0.045  0.00  0.00     0.055 C 
ATOM     10  C23 <0> d   1      -1.052   8.607  -0.041  0.00  0.00     0.218 A 
ATOM     11  O2  <0> d   1      -2.272   8.601  -0.077  0.00  0.00    -0.284 OA
ENDROOT
BRANCH   9  12
ATOM     12  C14 <0> d   1       0.432   5.116  -0.030  0.00  0.00    -0.005 A 
ATOM     13  C17 <0> d   1       0.183   3.661  -0.050  0.00  0.00     0.002 A 
ATOM     14  C16 <0> d   1       1.448   3.052  -0.024  0.00  0.00     0.045 A 
ATOM     15  C18 <0> d   1      -0.968   2.880  -0.085  0.00  0.00     0.014 A 
ATOM     16  N2  <0> d   1       2.396   4.055   0.009  0.00  0.00    -0.360 N 
ATOM     17  C21 <0> d   1       1.536   1.664  -0.035  0.00  0.00     0.030 A 
ATOM     18  C15 <0> d   1       1.800   5.273   0.005  0.00  0.00     0.103 A 
ATOM     19  C22 <0> d   1       3.844   3.834   0.042  0.00  0.00     0.156 C 
ATOM     20  C20 <0> d   1       0.389   0.902  -0.071  0.00  0.00     0.002 A 
ATOM     21  C19 <0> d   1      -0.860   1.506  -0.102  0.00  0.00     0.001 A 
ENDBRANCH   9  12
BRANCH   1  22
ATOM     22  C5  <0> d   1       3.627   9.650   0.091  0.00  0.00     0.279 C 
BRANCH  22  23
ATOM     23  N1  <0> d   1       4.059   9.325  -1.275  0.00  0.00    -0.068 N 
ATOM     24  H24 <0> d   1       3.227   8.814  -1.781  0.00  0.00     0.280 HD
BRANCH  23  25
ATOM     25  C2  <0> d   1       4.367  10.545  -2.034  0.00  0.00     0.231 C 
ATOM     26  C1  <0> d   1       5.573  11.246  -1.405  0.00  0.00     0.034 C 
ENDBRANCH  23  25
BRANCH  23  27
ATOM     27  C3  <0> d   1       5.209   8.411  -1.260  0.00  0.00     0.231 C 
ATOM     28  C4  <0> d   1       5.396   7.805  -2.653  0.00  0.00     0.034 C 
ENDBRANCH  23  27
ENDBRANCH  22  23
ENDBRANCH   1  22
BRANCH   2  29
ATOM     29  O3  <0> d   1       3.016  12.399   0.100  0.00  0.00    -0.360 OA
ATOM     30  H25 <0> d   1       2.830  13.483   0.105  0.00  0.00     0.217 HD
ENDBRANCH   2  29
TORSDOF 6
