REMARK  5 active torsions:
REMARK  status: ('A' for Active; 'I' for Inactive)
REMARK    1  A    between atoms: C3_3  and  C19_24 
REMARK    2  A    between atoms: C8_9  and  O3_13 
REMARK    3  A    between atoms: O3_13  and  C11_14 
REMARK    4  A    between atoms: C11_14  and  C12_15 
REMARK    5  A    between atoms: C12_15  and  N1_16 
ROOT
ATOM      1  C1  <0> d   1       0.364  -4.321   0.574  0.00  0.00     0.077 C 
ATOM      2  C2  <0> d   1       0.209  -2.828   0.447  0.00  0.00     0.065 A 
ATOM      3  C3  <0> d   1      -1.042  -2.305   0.375  0.00  0.00     0.054 A 
ATOM      4  C4  <0> d   1      -1.193  -0.845   0.250  0.00  0.00     0.198 A 
ATOM      5  O1  <0> d   1      -2.291  -0.320   0.182  0.00  0.00    -0.286 OA
ATOM      6  C5  <0> d   1       0.048  -0.050   0.213  0.00  0.00     0.049 A 
ATOM      7  C6  <0> d   1       0.014   1.340   0.098  0.00  0.00     0.021 A 
ATOM      8  C7  <0> d   1       1.182   2.046   0.067  0.00  0.00     0.038 A 
ATOM      9  C8  <0> d   1       2.406   1.385   0.148  0.00  0.00     0.071 A 
ATOM     10  C9  <0> d   1       2.456   0.006   0.263  0.00  0.00     0.075 A 
ATOM     11  C10 <0> d   1       1.277  -0.727   0.297  0.00  0.00     0.092 A 
ATOM     12  O2  <0> d   1       1.308  -2.070   0.408  0.00  0.00    -0.313 OA
ENDROOT
BRANCH   9  13
ATOM     13  O3  <0> d   1       3.560   2.099   0.115  0.00  0.00    -0.349 OA
BRANCH  13  14
ATOM     14  C11 <0> d   1       3.442   3.518  -0.004  0.00  0.00     0.203 C 
BRANCH  14  15
ATOM     15  C12 <0> d   1       4.837   4.146  -0.025  0.00  0.00     0.261 C 
BRANCH  15  16
ATOM     16  N1  <0> d   1       5.550   3.714  -1.234  0.00  0.00    -0.064 N 
ATOM     17  C16 <0> d   1       7.001   3.898  -1.083  0.00  0.00     0.266 C 
ATOM     18  C15 <0> d   1       7.709   3.381  -2.338  0.00  0.00     0.143 C 
ATOM     19  O4  <0> d   1       7.193   4.062  -3.485  0.00  0.00    -0.378 OA
ATOM     20  C17 <0> d   1       9.212   3.642  -2.223  0.00  0.00     0.041 C 
ATOM     21  C14 <0> d   1       5.783   3.904  -3.663  0.00  0.00     0.143 C 
ATOM     22  C13 <0> d   1       5.056   4.427  -2.421  0.00  0.00     0.266 C 
ATOM     23  C18 <0> d   1       5.330   4.696  -4.891  0.00  0.00     0.041 C 
ATOM     24  H27 <0> d   1       5.355   2.641  -1.373  0.00  0.00     0.280 HD
ENDBRANCH  15  16
ENDBRANCH  14  15
ENDBRANCH  13  14
ENDBRANCH   9  13
BRANCH   3  25
ATOM     25  C19 <0> d   1      -2.234  -3.187   0.422  0.00  0.00    -0.019 A 
ATOM     26  C24 <0> d   1      -3.123  -3.105   1.492  0.00  0.00     0.014 A 
ATOM     27  C23 <0> d   1      -4.230  -3.927   1.530  0.00  0.00     0.020 A 
ATOM     28  C22 <0> d   1      -4.459  -4.832   0.508  0.00  0.00     0.011 A 
ATOM     29  C21 <0> d   1      -3.579  -4.918  -0.557  0.00  0.00     0.020 A 
ATOM     30 Br1  <0> d   1      -5.979  -5.956   0.567  0.00  0.00    -0.051 Br
ATOM     31  C20 <0> d   1      -2.471  -4.096  -0.607  0.00  0.00     0.014 A 
ENDBRANCH   3  25
TORSDOF 5
