REMARK  5 active torsions:
REMARK  status: ('A' for Active; 'I' for Inactive)
REMARK    1  A    between atoms: O1_2  and  C2_3 
REMARK    2  A    between atoms: C6_7  and  C11_14 
REMARK    3  A    between atoms: C11_14  and  N1_15 
REMARK    4  A    between atoms: N2_18  and  C16_21 
REMARK    5  A    between atoms: C16_21  and  C17_22 
ROOT
ATOM      1  N1  <0> d   1       8.052  -2.652   0.030  0.00  0.00     0.096 N 
ATOM      2  C12 <0> d   1       8.359  -1.292   0.496  0.00  0.00     0.300 C 
ATOM      3  C13 <0> d   1       7.341  -0.879   1.561  0.00  0.00     0.265 C 
ATOM      4  N2  <0> d   1       5.987  -0.944   0.992  0.00  0.00    -0.064 N 
ATOM      5  C14 <0> d   1       5.680  -2.304   0.526  0.00  0.00     0.265 C 
ATOM      6  C15 <0> d   1       6.699  -2.717  -0.539  0.00  0.00     0.300 C 
ATOM      7  H25 <0> d   1       5.951  -0.271   0.123  0.00  0.00     0.280 HD
ENDROOT
BRANCH   1   8
ATOM      8  C11 <0> d   1       9.054  -3.114  -0.940  0.00  0.00     0.312 C 
BRANCH   8   9
ATOM      9  C6  <0> d   1       8.654  -4.468  -1.469  0.00  0.00    -0.011 A 
ATOM     10  C5  <0> d   1       8.798  -5.670  -0.645  0.00  0.00     0.006 A 
ATOM     11  C4  <0> d   1       9.300  -5.594   0.659  0.00  0.00     0.017 A 
ATOM     12  C9  <0> d   1       8.406  -6.912  -1.178  0.00  0.00     0.093 A 
ATOM     13  C3  <0> d   1       9.419  -6.729   1.407  0.00  0.00     0.038 A 
ATOM     14  C2  <0> d   1       9.038  -7.963   0.883  0.00  0.00     0.070 A 
ATOM     15  C10 <0> d   1       8.534  -8.056  -0.404  0.00  0.00     0.075 A 
ATOM     16  O3  <0> d   1       7.917  -6.980  -2.435  0.00  0.00    -0.275 OA
ATOM     17  C8  <0> d   1       7.787  -5.883  -3.197  0.00  0.00     0.288 A 
ATOM     18  C7  <0> d   1       8.154  -4.606  -2.725  0.00  0.00     0.092 A 
ATOM     19  O2  <0> d   1       7.341  -5.993  -4.324  0.00  0.00    -0.260 OA
BRANCH  14  20
ATOM     20  O1  <0> d   1       9.162  -9.083   1.639  0.00  0.00    -0.356 OA
ATOM     21  C1  <0> d   1       9.688  -8.920   2.958  0.00  0.00     0.210 C 
ENDBRANCH  14  20
ENDBRANCH   8   9
ENDBRANCH   1   8
BRANCH   4  22
ATOM     22  C16 <0> d   1       4.986  -0.482   1.962  0.00  0.00     0.273 C 
BRANCH  22  23
ATOM     23  C17 <0> d   1       3.654  -0.329   1.274  0.00  0.00    -0.030 A 
ATOM     24  C22 <0> d   1       3.311   0.878   0.694  0.00  0.00     0.048 A 
ATOM     25  C21 <0> d   1       2.087   1.021   0.060  0.00  0.00     0.105 A 
ATOM     26  C20 <0> d   1       1.204  -0.055   0.011  0.00  0.00     0.105 A 
ATOM     27  O4  <0> d   1       1.518   2.083  -0.580  0.00  0.00    -0.323 OA
ATOM     28  C19 <0> d   1       1.553  -1.261   0.595  0.00  0.00     0.040 A 
ATOM     29  O5  <0> d   1       0.080   0.334  -0.660  0.00  0.00    -0.323 OA
ATOM     30  C18 <0> d   1       2.776  -1.396   1.225  0.00  0.00     0.012 A 
ATOM     31  C23 <0> d   1       0.114   1.774  -0.664  0.00  0.00     0.352 C 
ENDBRANCH  22  23
ENDBRANCH   4  22
TORSDOF 5
