REMARK  4 active torsions:
REMARK  status: ('A' for Active; 'I' for Inactive)
REMARK    1  A    between atoms: C4_4  and  C7_7 
REMARK    2  A    between atoms: C13_14  and  C17_22 
REMARK    3  A    between atoms: C15_17  and  C16_18 
REMARK    4  A    between atoms: C17_22  and  N1_23 
ROOT
ATOM      1  C7  <0> d   1      -3.331  -1.069  -2.982  0.00  0.00     0.064 A 
ATOM      2  C8  <0> d   1      -3.075   0.171  -3.735  0.00  0.00     0.198 A 
ATOM      3  O1  <0> d   1      -3.320   0.257  -4.926  0.00  0.00    -0.286 OA
ATOM      4  C9  <0> d   1      -2.509   1.303  -2.979  0.00  0.00     0.050 A 
ATOM      5  C10 <0> d   1      -2.231   2.521  -3.599  0.00  0.00     0.021 A 
ATOM      6  C11 <0> d   1      -1.707   3.549  -2.869  0.00  0.00     0.041 A 
ATOM      7  C12 <0> d   1      -1.451   3.387  -1.509  0.00  0.00     0.118 A 
ATOM      8  C13 <0> d   1      -1.722   2.184  -0.879  0.00  0.00     0.039 A 
ATOM      9  C14 <0> d   1      -2.249   1.126  -1.608  0.00  0.00     0.101 A 
ATOM     10  O2  <0> d   1      -2.525  -0.049  -1.010  0.00  0.00    -0.303 OA
ATOM     11  C15 <0> d   1      -3.037  -1.099  -1.657  0.00  0.00     0.174 A 
ATOM     12  O3  <0> d   1      -0.931   4.418  -0.795  0.00  0.00    -0.191 OA
ENDROOT
BRANCH   8  13
ATOM     13  C17 <0> d   1      -1.440   2.021   0.592  0.00  0.00     0.279 C 
BRANCH  13  14
ATOM     14  N1  <0> d   1      -2.627   2.411   1.365  0.00  0.00    -0.067 N 
ATOM     15  C22 <0> d   1      -2.478   2.045   2.779  0.00  0.00     0.235 C 
ATOM     16  C21 <0> d   1      -3.785   2.331   3.522  0.00  0.00     0.028 C 
ATOM     17  C20 <0> d   1      -4.123   3.819   3.393  0.00  0.00     0.003 C 
ATOM     18  C19 <0> d   1      -4.225   4.185   1.910  0.00  0.00     0.028 C 
ATOM     19  C18 <0> d   1      -2.906   3.845   1.214  0.00  0.00     0.235 C 
ATOM     20  H20 <0> d   1      -3.489   1.858   0.964  0.00  0.00     0.280 HD
ENDBRANCH  13  14
ENDBRANCH   8  13
BRANCH  11  21
ATOM     21  C16 <0> d   1      -3.299  -2.367  -0.886  0.00  0.00     0.440 C 
ATOM     22  F1  <0> d   1      -2.415  -3.364  -1.313  0.00  0.00    -0.164 F 
ATOM     23  F2  <0> d   1      -3.109  -2.131   0.480  0.00  0.00    -0.164 F 
ATOM     24  F3  <0> d   1      -4.615  -2.785  -1.108  0.00  0.00    -0.164 F 
ENDBRANCH  11  21
BRANCH   1  25
ATOM     25  C4  <0> d   1      -3.899  -2.260  -3.658  0.00  0.00    -0.019 A 
ATOM     26  C3  <0> d   1      -5.225  -2.256  -4.088  0.00  0.00     0.012 A 
ATOM     27  C2  <0> d   1      -5.747  -3.368  -4.716  0.00  0.00     0.001 A 
ATOM     28  C1  <0> d   1      -4.958  -4.485  -4.920  0.00  0.00     0.000 A 
ATOM     29  C6  <0> d   1      -3.642  -4.496  -4.495  0.00  0.00     0.001 A 
ATOM     30  C5  <0> d   1      -3.107  -3.387  -3.871  0.00  0.00     0.012 A 
ENDBRANCH   1  25
TORSDOF 4
