REMARK  5 active torsions:
REMARK  status: ('A' for Active; 'I' for Inactive)
REMARK    1  A    between atoms: C2_2  and  N1_3 
REMARK    2  A    between atoms: C4_5  and  C11_12 
REMARK    3  A    between atoms: C17_19  and  O3_29 
REMARK    4  A    between atoms: C18_20  and  C20_23 
REMARK    5  A    between atoms: C20_23  and  N2_24 
ROOT
ATOM      1  C11 <0> d   1      -2.615   1.361   0.115  0.00  0.00     0.055 C 
ATOM      2  C12 <0> d   1      -2.861   0.022   0.084  0.00  0.00     0.128 A 
ATOM      3  C13 <0> d   1      -4.144  -0.586   0.080  0.00  0.00     0.218 A 
ATOM      4  O1  <0> d   1      -5.229  -0.028   0.104  0.00  0.00    -0.284 OA
ATOM      5  C14 <0> d   1      -3.884  -2.036   0.039  0.00  0.00     0.051 A 
ATOM      6  C15 <0> d   1      -4.710  -3.160   0.015  0.00  0.00     0.021 A 
ATOM      7  C16 <0> d   1      -4.158  -4.409  -0.016  0.00  0.00     0.038 A 
ATOM      8  C17 <0> d   1      -2.774  -4.564  -0.025  0.00  0.00     0.076 A 
ATOM      9  C18 <0> d   1      -1.942  -3.457  -0.002  0.00  0.00     0.036 A 
ATOM     10  C19 <0> d   1      -2.487  -2.181   0.030  0.00  0.00     0.101 A 
ATOM     11  O2  <0> d   1      -1.923  -0.955   0.058  0.00  0.00    -0.305 OA
ENDROOT
BRANCH   1  12
ATOM     12  C4  <0> d   1      -1.238   1.852   0.121  0.00  0.00    -0.005 A 
ATOM     13  C3  <0> d   1      -0.089   1.091   0.098  0.00  0.00     0.103 A 
ATOM     14  N1  <0> d   1       0.994   1.906   0.108  0.00  0.00    -0.356 N 
ATOM     15  C6  <0> d   1       0.604   3.229   0.143  0.00  0.00     0.045 A 
ATOM     16  C5  <0> d   1      -0.800   3.260   0.156  0.00  0.00     0.002 A 
ATOM     17  C7  <0> d   1       1.312   4.427   0.166  0.00  0.00     0.030 A 
ATOM     18  C10 <0> d   1      -1.471   4.479   0.191  0.00  0.00     0.014 A 
ATOM     19  C9  <0> d   1      -0.752   5.655   0.212  0.00  0.00     0.001 A 
ATOM     20  C8  <0> d   1       0.634   5.626   0.200  0.00  0.00     0.002 A 
BRANCH  14  21
ATOM     21  C2  <0> d   1       2.385   1.446   0.086  0.00  0.00     0.124 C 
ATOM     22  C1  <0> d   1       2.921   1.371   1.517  0.00  0.00     0.027 C 
ENDBRANCH  14  21
ENDBRANCH   1  12
BRANCH   9  23
ATOM     23  C20 <0> d   1      -0.446  -3.638  -0.011  0.00  0.00     0.279 C 
BRANCH  23  24
ATOM     24  N2  <0> d   1       0.017  -3.817  -1.394  0.00  0.00    -0.067 N 
ATOM     25  C24 <0> d   1       1.492  -3.898  -1.453  0.00  0.00     0.235 C 
ATOM     26  C23 <0> d   1       1.929  -3.235  -2.773  0.00  0.00     0.029 C 
ATOM     27  C22 <0> d   1       0.618  -2.751  -3.434  0.00  0.00     0.029 C 
ATOM     28  C21 <0> d   1      -0.359  -2.652  -2.236  0.00  0.00     0.235 C 
ATOM     29  H24 <0> d   1      -0.452  -4.746  -1.749  0.00  0.00     0.280 HD
ENDBRANCH  23  24
ENDBRANCH   9  23
BRANCH   8  30
ATOM     30  O3  <0> d   1      -2.237  -5.810  -0.056  0.00  0.00    -0.360 OA
ATOM     31  H25 <0> d   1      -1.144  -5.938  -0.063  0.00  0.00     0.217 HD
ENDBRANCH   8  30
TORSDOF 5
