REMARK  6 active torsions:
REMARK  status: ('A' for Active; 'I' for Inactive)
REMARK    1  A    between atoms: C2_2  and  N1_3 
REMARK    2  A    between atoms: N2_6  and  C7_9 
REMARK    3  A    between atoms: C7_9  and  C8_10 
REMARK    4  A    between atoms: C15_18  and  C16_19 
REMARK    5  A    between atoms: C21_24  and  O2_25 
REMARK    6  A    between atoms: O2_25  and  C22_26 
ROOT
ATOM      1  C8  <0> d   1       2.688  -4.123  -3.115  0.00  0.00     0.039 A 
ATOM      2  C9  <0> d   1       3.608  -4.910  -2.441  0.00  0.00     0.118 A 
ATOM      3  C10 <0> d   1       3.626  -6.290  -2.621  0.00  0.00     0.041 A 
ATOM      4  C11 <0> d   1       2.732  -6.884  -3.468  0.00  0.00     0.021 A 
ATOM      5  C12 <0> d   1       1.799  -6.104  -4.152  0.00  0.00     0.051 A 
ATOM      6  C13 <0> d   1       1.768  -4.711  -3.975  0.00  0.00     0.101 A 
ATOM      7  O1  <0> d   1       0.784  -4.178  -4.731  0.00  0.00    -0.305 OA
ATOM      8  C14 <0> d   1       0.116  -5.126  -5.429  0.00  0.00     0.128 A 
ATOM      9  C15 <0> d   1      -0.923  -4.914  -6.277  0.00  0.00     0.055 C 
ATOM     10  C24 <0> d   1       0.728  -6.424  -5.112  0.00  0.00     0.218 A 
ATOM     11  O3  <0> d   1       0.411  -7.521  -5.538  0.00  0.00    -0.284 OA
ATOM     12  O4  <0> d   1       4.500  -4.330  -1.599  0.00  0.00    -0.191 OA
ENDROOT
BRANCH   1  13
ATOM     13  C7  <0> d   1       2.680  -2.630  -2.911  0.00  0.00     0.279 C 
BRANCH  13  14
ATOM     14  N2  <0> d   1       1.789  -2.293  -1.792  0.00  0.00    -0.064 N 
ATOM     15  C4  <0> d   1       1.874  -0.853  -1.516  0.00  0.00     0.265 C 
ATOM     16  C3  <0> d   1       0.960  -0.505  -0.339  0.00  0.00     0.300 C 
ATOM     17  N1  <0> d   1      -0.423  -0.878  -0.669  0.00  0.00     0.091 N 
ATOM     18  C6  <0> d   1      -0.518  -2.313  -0.973  0.00  0.00     0.300 C 
ATOM     19  C5  <0> d   1       0.408  -2.646  -2.144  0.00  0.00     0.265 C 
ATOM     20  H28 <0> d   1       2.070  -2.810  -0.972  0.00  0.00     0.280 HD
BRANCH  17  21
ATOM     21  C2  <0> d   1      -1.341  -0.507   0.416  0.00  0.00     0.268 C 
ATOM     22  C1  <0> d   1      -1.400   1.017   0.536  0.00  0.00     0.037 C 
ENDBRANCH  17  21
ENDBRANCH  13  14
ENDBRANCH   1  13
BRANCH   9  23
ATOM     23  C16 <0> d   1      -1.496  -3.570  -6.415  0.00  0.00     0.000 A 
ATOM     24  C21 <0> d   1      -2.764  -3.397  -6.994  0.00  0.00     0.079 A 
ATOM     25  C20 <0> d   1      -3.296  -2.123  -7.113  0.00  0.00     0.037 A 
ATOM     26  C19 <0> d   1      -2.577  -1.028  -6.675  0.00  0.00     0.003 A 
ATOM     27  C18 <0> d   1      -1.323  -1.192  -6.107  0.00  0.00     0.001 A 
ATOM     28  C17 <0> d   1      -0.779  -2.450  -5.975  0.00  0.00     0.014 A 
BRANCH  24  29
ATOM     29  O2  <0> d   1      -3.466  -4.473  -7.430  0.00  0.00    -0.351 OA
BRANCH  29  30
ATOM     30  C22 <0> d   1      -4.749  -4.220  -8.008  0.00  0.00     0.171 C 
ATOM     31  C23 <0> d   1      -5.385  -5.543  -8.438  0.00  0.00     0.034 C 
ENDBRANCH  29  30
ENDBRANCH  24  29
ENDBRANCH   9  23
TORSDOF 6
