REMARK  8 active torsions:
REMARK  status: ('A' for Active; 'I' for Inactive)
REMARK    1  A    between atoms: N1_4  and  C7_9 
REMARK    2  A    between atoms: C7_9  and  C8_10 
REMARK    3  A    between atoms: C8_10  and  O2_11 
REMARK    4  A    between atoms: O2_11  and  C9_12 
REMARK    5  A    between atoms: C12_15  and  C15_19 
REMARK    6  A    between atoms: C16_20  and  C18_25 
REMARK    7  A    between atoms: C21_28  and  O5_33 
REMARK    8  A    between atoms: C22_29  and  O4_31 
ROOT
ATOM      1  C9  <0> d   1       0.237  -5.925  -2.023  0.00  0.00     0.071 A 
ATOM      2  C10 <0> d   1       1.127  -6.981  -2.172  0.00  0.00     0.038 A 
ATOM      3  C11 <0> d   1       0.655  -8.259  -2.386  0.00  0.00     0.019 A 
ATOM      4  C12 <0> d   1      -0.717  -8.494  -2.452  0.00  0.00     0.032 A 
ATOM      5  C13 <0> d   1      -1.612  -7.429  -2.302  0.00  0.00     0.122 A 
ATOM      6  C14 <0> d   1      -1.130  -6.150  -2.083  0.00  0.00     0.077 A 
ATOM      7  O3  <0> d   1      -2.951  -7.651  -2.366  0.00  0.00    -0.191 OA
ENDROOT
BRANCH   4   8
ATOM      8  C15 <0> d   1      -1.226  -9.867  -2.682  0.00  0.00     0.102 A 
ATOM      9  C16 <0> d   1      -0.766 -10.773  -3.671  0.00  0.00     0.022 A 
ATOM     10  C17 <0> d   1      -1.493 -11.919  -3.545  0.00  0.00     0.124 A 
ATOM     11  N2  <0> d   1      -2.366 -11.746  -2.531  0.00  0.00    -0.288 N 
ATOM     12  H3  <0> d   1      -3.010 -12.400  -2.219  0.00  0.00     0.188 HD
ATOM     13  N3  <0> d   1      -2.181 -10.463  -2.002  0.00  0.00    -0.174 NA
BRANCH   9  14
ATOM     14  C18 <0> d   1       0.309 -10.520  -4.661  0.00  0.00    -0.019 A 
ATOM     15  C23 <0> d   1       1.397 -11.386  -4.746  0.00  0.00     0.052 A 
ATOM     16  C22 <0> d   1       2.396 -11.150  -5.675  0.00  0.00     0.102 A 
ATOM     17  C21 <0> d   1       2.316 -10.043  -6.515  0.00  0.00     0.101 A 
ATOM     18  C20 <0> d   1       1.236  -9.179  -6.426  0.00  0.00     0.040 A 
ATOM     19  C19 <0> d   1       0.235  -9.413  -5.504  0.00  0.00     0.015 A 
BRANCH  16  20
ATOM     20  O4  <0> d   1       3.456 -11.997  -5.763  0.00  0.00    -0.353 OA
ATOM     21  C24 <0> d   1       3.472 -13.112  -4.870  0.00  0.00     0.210 C 
ENDBRANCH  16  20
BRANCH  17  22
ATOM     22  O5  <0> d   1       3.300  -9.809  -7.424  0.00  0.00    -0.353 OA
ATOM     23  C25 <0> d   1       3.154  -8.655  -8.255  0.00  0.00     0.210 C 
ENDBRANCH  17  22
ENDBRANCH   9  14
ENDBRANCH   4   8
BRANCH   1  24
ATOM     24  O2  <0> d   1       0.708  -4.667  -1.813  0.00  0.00    -0.349 OA
BRANCH  24  25
ATOM     25  C8  <0> d   1       2.127  -4.506  -1.763  0.00  0.00     0.206 C 
BRANCH  25  26
ATOM     26  C7  <0> d   1       2.464  -3.033  -1.520  0.00  0.00     0.299 C 
BRANCH  26  27
ATOM     27  N1  <0> d   1       1.980  -2.632  -0.192  0.00  0.00     0.095 N 
ATOM     28  C3  <0> d   1       2.071  -1.176  -0.016  0.00  0.00     0.303 C 
ATOM     29  C2  <0> d   1       1.502  -0.796   1.354  0.00  0.00     0.146 C 
ATOM     30  C1  <0> d   1       1.667   0.709   1.577  0.00  0.00     0.041 C 
ATOM     31  O1  <0> d   1       2.208  -1.510   2.373  0.00  0.00    -0.378 OA
ATOM     32  C5  <0> d   1       2.141  -2.932   2.231  0.00  0.00     0.146 C 
ATOM     33  C4  <0> d   1       2.716  -3.333   0.870  0.00  0.00     0.303 C 
ATOM     34  C6  <0> d   1       2.953  -3.595   3.345  0.00  0.00     0.041 C 
ENDBRANCH  26  27
ENDBRANCH  25  26
ENDBRANCH  24  25
ENDBRANCH   1  24
TORSDOF 8
