REMARK  7 active torsions:
REMARK  status: ('A' for Active; 'I' for Inactive)
REMARK    1  A    between atoms: C3_3  and  O3_20 
REMARK    2  A    between atoms: C4_4  and  C5_8 
REMARK    3  A    between atoms: C8_11  and  O2_15 
REMARK    4  A    between atoms: O2_15  and  C11_16 
REMARK    5  A    between atoms: C11_16  and  C12_17 
REMARK    6  A    between atoms: O3_20  and  C15_21 
REMARK    7  A    between atoms: C20_26  and  O4_27 
ROOT
ATOM      1  C1  <0> d   1      -0.018   1.503   0.010  0.00  0.00     0.073 C 
ATOM      2  C2  <0> d   1       0.002  -0.004   0.002  0.00  0.00     0.060 A 
ATOM      3  C3  <0> d   1       0.023  -0.808   1.092  0.00  0.00     0.131 A 
ATOM      4  C4  <0> d   1       0.036  -2.145   0.642  0.00  0.00     0.126 A 
ATOM      5  N1  <0> d   1       0.023  -2.133  -0.675  0.00  0.00    -0.171 NA
ATOM      6  H1  <0> d   1      -0.021  -0.495  -2.022  0.00  0.00     0.189 HD
ATOM      7  N2  <0> d   1      -0.004  -0.799  -1.101  0.00  0.00    -0.279 N 
ENDROOT
BRANCH   4   8
ATOM      8  C5  <0> d   1       0.061  -3.353   1.502  0.00  0.00     0.034 A 
ATOM      9  C10 <0> d   1       0.072  -4.626   0.922  0.00  0.00     0.122 A 
ATOM     10  C9  <0> d   1       0.100  -5.750   1.730  0.00  0.00     0.077 A 
ATOM     11  O1  <0> d   1       0.060  -4.759  -0.430  0.00  0.00    -0.191 OA
ATOM     12  C8  <0> d   1       0.106  -5.612   3.110  0.00  0.00     0.071 A 
ATOM     13  C7  <0> d   1       0.089  -4.349   3.686  0.00  0.00     0.038 A 
ATOM     14  C6  <0> d   1       0.067  -3.224   2.889  0.00  0.00     0.020 A 
BRANCH  12  15
ATOM     15  O2  <0> d   1       0.128  -6.717   3.901  0.00  0.00    -0.347 OA
BRANCH  15  16
ATOM     16  C11 <0> d   1       0.145  -7.986   3.243  0.00  0.00     0.208 C 
BRANCH  16  17
ATOM     17  C12 <0> d   1       0.169  -9.085   4.274  0.00  0.00    -0.069 C 
ATOM     18  C13 <0> d   1       0.172  -8.788   5.549  0.00  0.00     0.016 C 
ATOM     19  C14 <0> d   1       0.189 -10.527   3.836  0.00  0.00     0.044 C 
ENDBRANCH  16  17
ENDBRANCH  15  16
ENDBRANCH  12  15
ENDBRANCH   4   8
BRANCH   3  20
ATOM     20  O3  <0> d   1       0.031  -0.398   2.390  0.00  0.00    -0.303 OA
BRANCH  20  21
ATOM     21  C15 <0> d   1      -1.165  -0.222   3.011  0.00  0.00     0.109 A 
ATOM     22  C20 <0> d   1      -1.208   0.196   4.338  0.00  0.00     0.102 A 
ATOM     23  C19 <0> d   1      -2.430   0.380   4.965  0.00  0.00     0.039 A 
ATOM     24  C18 <0> d   1      -3.603   0.136   4.276  0.00  0.00     0.003 A 
ATOM     25  C17 <0> d   1      -3.562  -0.284   2.959  0.00  0.00     0.003 A 
ATOM     26  C16 <0> d   1      -2.346  -0.464   2.326  0.00  0.00     0.040 A 
BRANCH  22  27
ATOM     27  O4  <0> d   1      -0.052   0.428   5.017  0.00  0.00    -0.353 OA
ATOM     28  C21 <0> d   1      -0.173   0.855   6.375  0.00  0.00     0.210 C 
ENDBRANCH  22  27
ENDBRANCH  20  21
ENDBRANCH   3  20
TORSDOF 7
