REMARK  6 active torsions:
REMARK  status: ('A' for Active; 'I' for Inactive)
REMARK    1  A    between atoms: C8_8  and  C10_12 
REMARK    2  A    between atoms: C18_22  and  C19_23 
REMARK    3  A    between atoms: C19_23  and  N1_24 
REMARK    4  A    between atoms: N2_27  and  C24_30 
REMARK    5  A    between atoms: C24_30  and  C25_31 
REMARK    6  A    between atoms: C25_31  and  O5_32 
ROOT
ATOM      1  C10 <0> d   1      -0.137  -0.407   0.112  0.00  0.00    -0.001 A 
ATOM      2  C11 <0> d   1      -1.216   0.461   0.156  0.00  0.00     0.096 A 
ATOM      3  C12 <0> d   1      -0.989   1.845   0.146  0.00  0.00     0.289 A 
ATOM      4  O3  <0> d   1      -1.944   2.602   0.179  0.00  0.00    -0.260 OA
ATOM      5  O4  <0> d   1       0.250   2.361   0.096  0.00  0.00    -0.274 OA
ATOM      6  C13 <0> d   1       1.349   1.577   0.051  0.00  0.00     0.101 A 
ATOM      7  C14 <0> d   1       1.215   0.178   0.057  0.00  0.00     0.010 A 
ATOM      8  C15 <0> d   1       2.348  -0.635   0.011  0.00  0.00     0.018 A 
ATOM      9  C16 <0> d   1       3.590  -0.068  -0.040  0.00  0.00     0.041 A 
ATOM     10  C17 <0> d   1       3.731   1.317  -0.046  0.00  0.00     0.118 A 
ATOM     11  C18 <0> d   1       2.615   2.138  -0.001  0.00  0.00     0.039 A 
ATOM     12  O6  <0> d   1       4.971   1.868  -0.097  0.00  0.00    -0.191 OA
ENDROOT
BRANCH  11  13
ATOM     13  C19 <0> d   1       2.779   3.636  -0.008  0.00  0.00     0.279 C 
BRANCH  13  14
ATOM     14  N1  <0> d   1       2.888   4.123   1.374  0.00  0.00    -0.064 N 
ATOM     15  C23 <0> d   1       3.284   5.538   1.404  0.00  0.00     0.265 C 
ATOM     16  C22 <0> d   1       3.464   5.984   2.857  0.00  0.00     0.300 C 
ATOM     17  N2  <0> d   1       2.207   5.776   3.590  0.00  0.00     0.093 N 
ATOM     18  C21 <0> d   1       1.812   4.361   3.560  0.00  0.00     0.300 C 
ATOM     19  C20 <0> d   1       1.632   3.915   2.107  0.00  0.00     0.265 C 
ATOM     20  H24 <0> d   1       3.675   3.540   1.875  0.00  0.00     0.280 HD
BRANCH  17  21
ATOM     21  C24 <0> d   1       2.317   6.263   4.972  0.00  0.00     0.298 C 
BRANCH  21  22
ATOM     22  C25 <0> d   1       2.244   7.791   4.981  0.00  0.00     0.194 C 
BRANCH  22  23
ATOM     23  O5  <0> d   1       0.955   8.209   4.527  0.00  0.00    -0.399 OA
ATOM     24  H23 <0> d   1       0.715   9.281   4.465  0.00  0.00     0.209 HD
ENDBRANCH  22  23
ENDBRANCH  21  22
ENDBRANCH  17  21
ENDBRANCH  13  14
ENDBRANCH  11  13
BRANCH   1  25
ATOM     25  C8  <0> d   1      -0.335  -1.869   0.120  0.00  0.00     0.052 A 
ATOM     26  C7  <0> d   1      -0.971  -2.498  -0.933  0.00  0.00     0.032 A 
ATOM     27  C5  <0> d   1      -1.139  -3.906  -0.884  0.00  0.00    -0.001 A 
ATOM     28  C4  <0> d   1      -0.664  -4.634   0.221  0.00  0.00     0.089 A 
ATOM     29  C6  <0> d   1      -1.781  -4.577  -1.936  0.00  0.00     0.014 A 
ATOM     30  C3  <0> d   1      -0.839  -6.013   0.253  0.00  0.00     0.038 A 
ATOM     31  O2  <0> d   1      -0.044  -4.011   1.246  0.00  0.00    -0.274 OA
ATOM     32  C2  <0> d   1      -1.472  -6.652  -0.792  0.00  0.00     0.003 A 
ATOM     33  C1  <0> d   1      -1.941  -5.931  -1.882  0.00  0.00     0.001 A 
ATOM     34  C9  <0> d   1       0.146  -2.681   1.245  0.00  0.00     0.299 A 
ATOM     35  O1  <0> d   1       0.713  -2.148   2.180  0.00  0.00    -0.259 OA
ENDBRANCH   1  25
TORSDOF 6
