REMARK  5 active torsions:
REMARK  status: ('A' for Active; 'I' for Inactive)
REMARK    1  A    between atoms: O1_2  and  C2_3 
REMARK    2  A    between atoms: C5_6  and  C8_9 
REMARK    3  A    between atoms: C14_16  and  C18_24 
REMARK    4  A    between atoms: C16_19  and  C17_20 
REMARK    5  A    between atoms: C18_24  and  N1_25 
ROOT
ATOM      1  C8  <0> d   1       0.179  -0.080  -0.526  0.00  0.00     0.064 A 
ATOM      2  C9  <0> d   1       0.066   1.389  -0.560  0.00  0.00     0.198 A 
ATOM      3  O2  <0> d   1      -0.904   1.944  -1.048  0.00  0.00    -0.286 OA
ATOM      4  C10 <0> d   1       1.185   2.154   0.018  0.00  0.00     0.050 A 
ATOM      5  C11 <0> d   1       1.174   3.550   0.036  0.00  0.00     0.021 A 
ATOM      6  C12 <0> d   1       2.227   4.228   0.581  0.00  0.00     0.041 A 
ATOM      7  C13 <0> d   1       3.309   3.534   1.118  0.00  0.00     0.118 A 
ATOM      8  C14 <0> d   1       3.334   2.149   1.107  0.00  0.00     0.039 A 
ATOM      9  C15 <0> d   1       2.272   1.444   0.557  0.00  0.00     0.101 A 
ATOM     10  O3  <0> d   1       2.279   0.096   0.540  0.00  0.00    -0.303 OA
ATOM     11  C16 <0> d   1       1.288  -0.636   0.026  0.00  0.00     0.174 A 
ATOM     12  O5  <0> d   1       4.349   4.221   1.656  0.00  0.00    -0.191 OA
ENDROOT
BRANCH   1  13
ATOM     13  C5  <0> d   1      -0.898  -0.934  -1.085  0.00  0.00    -0.019 A 
ATOM     14  C4  <0> d   1      -2.128  -1.020  -0.437  0.00  0.00     0.015 A 
ATOM     15  C3  <0> d   1      -3.127  -1.815  -0.959  0.00  0.00     0.037 A 
ATOM     16  C2  <0> d   1      -2.908  -2.528  -2.130  0.00  0.00     0.068 A 
ATOM     17  C7  <0> d   1      -1.684  -2.444  -2.778  0.00  0.00     0.037 A 
ATOM     18  C6  <0> d   1      -0.682  -1.647  -2.263  0.00  0.00     0.015 A 
BRANCH  16  19
ATOM     19  O1  <0> d   1      -3.894  -3.310  -2.642  0.00  0.00    -0.356 OA
ATOM     20  C1  <0> d   1      -3.601  -4.016  -3.849  0.00  0.00     0.210 C 
ENDBRANCH  16  19
ENDBRANCH   1  13
BRANCH  11  21
ATOM     21  C17 <0> d   1       1.403  -2.138   0.061  0.00  0.00     0.440 C 
ATOM     22  F1  <0> d   1       1.559  -2.624  -1.242  0.00  0.00    -0.164 F 
ATOM     23  F2  <0> d   1       2.513  -2.503   0.830  0.00  0.00    -0.164 F 
ATOM     24  F3  <0> d   1       0.245  -2.682   0.626  0.00  0.00    -0.164 F 
ENDBRANCH  11  21
BRANCH   8  25
ATOM     25  C18 <0> d   1       4.510   1.410   1.692  0.00  0.00     0.281 C 
BRANCH  25  26
ATOM     26  N1  <0> d   1       5.518   1.190   0.647  0.00  0.00    -0.046 N 
ATOM     27  C22 <0> d   1       6.095   2.463   0.195  0.00  0.00     0.402 C 
ATOM     28  O4  <0> d   1       7.124   2.208  -0.763  0.00  0.00    -0.364 OA
ATOM     29  C21 <0> d   1       6.670   1.520  -1.932  0.00  0.00     0.171 C 
ATOM     30  C20 <0> d   1       6.052   0.182  -1.516  0.00  0.00     0.054 C 
ATOM     31  C19 <0> d   1       4.950   0.441  -0.483  0.00  0.00     0.240 C 
ATOM     32  H20 <0> d   1       6.328   0.586   1.083  0.00  0.00     0.282 HD
ENDBRANCH  25  26
ENDBRANCH   8  25
TORSDOF 5
