REMARK  4 active torsions:
REMARK  status: ('A' for Active; 'I' for Inactive)
REMARK    1  A    between atoms: C5_5  and  C12_14 
REMARK    2  A    between atoms: C12_14  and  N1_15 
REMARK    3  A    between atoms: N2_18  and  C17_21 
REMARK    4  A    between atoms: C17_21  and  C18_22 
ROOT
ATOM      1  N1  <0> d   1      -1.373  -1.790  -4.149  0.00  0.00     0.096 N 
ATOM      2  C13 <0> d   1      -1.951  -0.808  -3.222  0.00  0.00     0.300 C 
ATOM      3  C14 <0> d   1      -3.410  -0.548  -3.602  0.00  0.00     0.265 C 
ATOM      4  N2  <0> d   1      -3.475  -0.044  -4.980  0.00  0.00    -0.064 N 
ATOM      5  C15 <0> d   1      -2.917  -1.046  -5.897  0.00  0.00     0.265 C 
ATOM      6  C16 <0> d   1      -1.453  -1.309  -5.536  0.00  0.00     0.300 C 
ATOM      7  H27 <0> d   1      -2.942   0.810  -5.051  0.00  0.00     0.280 HD
ENDROOT
BRANCH   1   8
ATOM      8  C12 <0> d   1       0.013  -2.109  -3.782  0.00  0.00     0.312 C 
BRANCH   8   9
ATOM      9  C5  <0> d   1       0.029  -2.824  -2.455  0.00  0.00    -0.011 A 
ATOM     10  C4  <0> d   1       0.025  -2.074  -1.195  0.00  0.00     0.007 A 
ATOM     11  C3  <0> d   1       0.006  -0.676  -1.188  0.00  0.00     0.022 A 
ATOM     12  C8  <0> d   1       0.040  -2.781   0.019  0.00  0.00     0.090 A 
ATOM     13  C2  <0> d   1       0.002  -0.004   0.002  0.00  0.00    -0.055 A 
ATOM     14  C1  <0> d   1      -0.018   1.503   0.010  0.00  0.00     0.049 C 
ATOM     15  C10 <0> d   1       0.023  -0.699   1.202  0.00  0.00    -0.053 A 
ATOM     16  C9  <0> d   1       0.036  -2.078   1.217  0.00  0.00     0.045 A 
ATOM     17  C11 <0> d   1       0.025   0.061   2.504  0.00  0.00     0.049 C 
ATOM     18  O2  <0> d   1       0.059  -4.131   0.011  0.00  0.00    -0.275 OA
ATOM     19  C7  <0> d   1       0.063  -4.825  -1.138  0.00  0.00     0.288 A 
ATOM     20  C6  <0> d   1       0.049  -4.179  -2.393  0.00  0.00     0.092 A 
ATOM     21  O1  <0> d   1       0.080  -6.042  -1.097  0.00  0.00    -0.260 OA
ENDBRANCH   8   9
ENDBRANCH   1   8
BRANCH   4  22
ATOM     22  C17 <0> d   1      -4.875   0.222  -5.339  0.00  0.00     0.273 C 
BRANCH  22  23
ATOM     23  C18 <0> d   1      -4.931   0.855  -6.706  0.00  0.00    -0.030 A 
ATOM     24  C23 <0> d   1      -5.036   0.058  -7.830  0.00  0.00     0.048 A 
ATOM     25  C22 <0> d   1      -5.093   0.637  -9.088  0.00  0.00     0.105 A 
ATOM     26  C21 <0> d   1      -5.035   2.023  -9.215  0.00  0.00     0.105 A 
ATOM     27  O3  <0> d   1      -5.199   0.088 -10.333  0.00  0.00    -0.323 OA
ATOM     28  C20 <0> d   1      -4.924   2.815  -8.084  0.00  0.00     0.040 A 
ATOM     29  O4  <0> d   1      -5.104   2.342 -10.540  0.00  0.00    -0.323 OA
ATOM     30  C19 <0> d   1      -4.873   2.230  -6.832  0.00  0.00     0.012 A 
ATOM     31  C24 <0> d   1      -5.616   1.165 -11.193  0.00  0.00     0.352 C 
ENDBRANCH  22  23
ENDBRANCH   4  22
TORSDOF 4
