REMARK  6 active torsions:
REMARK  status: ('A' for Active; 'I' for Inactive)
REMARK    1  A    between atoms: C4_4  and  O5_37 
REMARK    2  A    between atoms: C5_5  and  C17_20 
REMARK    3  A    between atoms: C10_11  and  C11_12 
REMARK    4  A    between atoms: C17_20  and  N1_21 
REMARK    5  A    between atoms: N2_24  and  C22_27 
REMARK    6  A    between atoms: C22_27  and  C23_28 
ROOT
ATOM      1  C1  <0> d   1      -0.085   1.509   0.016  0.00  0.00     0.049 C 
ATOM      2  C2  <0> d   1      -0.072   0.002   0.006  0.00  0.00    -0.042 A 
ATOM      3  C3  <0> d   1      -0.093  -0.674  -1.181  0.00  0.00     0.045 A 
ATOM      4  C4  <0> d   1      -0.081  -2.066  -1.193  0.00  0.00     0.077 A 
ATOM      5  C5  <0> d   1      -0.048  -2.781  -0.007  0.00  0.00     0.038 A 
ATOM      6  C6  <0> d   1      -0.027  -2.109   1.209  0.00  0.00     0.102 A 
ATOM      7  C7  <0> d   1      -0.034  -0.705   1.208  0.00  0.00     0.057 A 
ATOM      8  C8  <0> d   1      -0.000  -0.288   2.622  0.00  0.00     0.219 A 
ATOM      9  O1  <0> d   1       0.001   0.847   3.065  0.00  0.00    -0.284 OA
ATOM     10  C9  <0> d   1       0.031  -1.550   3.377  0.00  0.00     0.128 A 
ATOM     11  C10 <0> d   1       0.068  -1.675   4.728  0.00  0.00     0.053 C 
ATOM     12  O2  <0> d   1       0.005  -2.564   2.480  0.00  0.00    -0.305 OA
ENDROOT
BRANCH   5  13
ATOM     13  C17 <0> d   1      -0.037  -4.288  -0.035  0.00  0.00     0.317 C 
BRANCH  13  14
ATOM     14  N1  <0> d   1       1.352  -4.766  -0.075  0.00  0.00     0.096 N 
ATOM     15  C21 <0> d   1       1.404  -6.210  -0.341  0.00  0.00     0.300 C 
ATOM     16  C20 <0> d   1       2.865  -6.657  -0.434  0.00  0.00     0.265 C 
ATOM     17  N2  <0> d   1       3.552  -6.349   0.827  0.00  0.00    -0.064 N 
ATOM     18  C19 <0> d   1       3.513  -4.900   1.067  0.00  0.00     0.265 C 
ATOM     19  H28 <0> d   1       3.091  -6.828   1.586  0.00  0.00     0.280 HD
ATOM     20  C18 <0> d   1       2.058  -4.439   1.172  0.00  0.00     0.300 C 
BRANCH  17  21
ATOM     21  C22 <0> d   1       4.949  -6.794   0.744  0.00  0.00     0.273 C 
BRANCH  21  22
ATOM     22  C23 <0> d   1       4.992  -8.295   0.620  0.00  0.00    -0.030 A 
ATOM     23  C28 <0> d   1       4.972  -8.885  -0.629  0.00  0.00     0.048 A 
ATOM     24  C27 <0> d   1       5.016 -10.265  -0.745  0.00  0.00     0.105 A 
ATOM     25  C26 <0> d   1       5.071 -11.055   0.401  0.00  0.00     0.105 A 
ATOM     26  O3  <0> d   1       5.012 -11.082  -1.839  0.00  0.00    -0.323 OA
ATOM     27  C25 <0> d   1       5.085 -10.457   1.650  0.00  0.00     0.040 A 
ATOM     28  O4  <0> d   1       5.101 -12.367   0.025  0.00  0.00    -0.323 OA
ATOM     29  C24 <0> d   1       5.046  -9.079   1.758  0.00  0.00     0.012 A 
ATOM     30  C29 <0> d   1       5.476 -12.360  -1.365  0.00  0.00     0.352 C 
ENDBRANCH  21  22
ENDBRANCH  17  21
ENDBRANCH  13  14
ENDBRANCH   5  13
BRANCH   4  31
ATOM     31  O5  <0> d   1      -0.102  -2.729  -2.378  0.00  0.00    -0.360 OA
ATOM     32  H27 <0> d   1       0.776  -2.913  -2.741  0.00  0.00     0.217 HD
ENDBRANCH   4  31
BRANCH  11  33
ATOM     33  C11 <0> d   1      -0.019  -3.005   5.345  0.00  0.00    -0.033 A 
ATOM     34  C16 <0> d   1      -0.010  -4.154   4.544  0.00  0.00     0.014 A 
ATOM     35  C15 <0> d   1      -0.086  -5.398   5.130  0.00  0.00     0.043 A 
ATOM     36  C14 <0> d   1      -0.182  -5.515   6.509  0.00  0.00     0.116 A 
ATOM     37  C13 <0> d   1      -0.197  -4.381   7.308  0.00  0.00     0.043 A 
ATOM     38  F1  <0> d   1      -0.262  -6.738   7.076  0.00  0.00    -0.206 F 
ATOM     39  C12 <0> d   1      -0.116  -3.130   6.736  0.00  0.00     0.014 A 
ENDBRANCH  11  33
TORSDOF 6
