REMARK  5 active torsions:
REMARK  status: ('A' for Active; 'I' for Inactive)
REMARK    1  A    between atoms: C2_2  and  N1_3 
REMARK    2  A    between atoms: N2_6  and  C7_9 
REMARK    3  A    between atoms: C7_9  and  C8_10 
REMARK    4  A    between atoms: C9_11  and  O3_28 
REMARK    5  A    between atoms: C15_19  and  C18_22 
ROOT
ATOM      1  C8  <0> d   1       1.762  -4.052   4.729  0.00  0.00     0.038 A 
ATOM      2  C9  <0> d   1       0.736  -4.765   5.329  0.00  0.00     0.076 A 
ATOM      3  C10 <0> d   1       0.744  -6.158   5.321  0.00  0.00     0.038 A 
ATOM      4  C11 <0> d   1       1.769  -6.841   4.733  0.00  0.00     0.017 A 
ATOM      5  C12 <0> d   1       2.828  -6.138   4.141  0.00  0.00     0.006 A 
ATOM      6  C13 <0> d   1       2.803  -4.730   4.116  0.00  0.00     0.101 A 
ATOM      7  O1  <0> d   1       3.787  -4.047   3.481  0.00  0.00    -0.273 OA
ATOM      8  C14 <0> d   1       4.991  -4.658   3.391  0.00  0.00     0.300 C 
ATOM      9  O2  <0> d   1       6.026  -4.028   3.510  0.00  0.00    -0.259 OA
ATOM     10  C15 <0> d   1       5.007  -6.109   3.145  0.00  0.00     0.057 C 
ATOM     11  C16 <0> d   1       3.917  -6.833   3.555  0.00  0.00    -0.032 C 
ATOM     12  C17 <0> d   1       3.870  -8.328   3.370  0.00  0.00     0.050 C 
ENDROOT
BRANCH   1  13
ATOM     13  C7  <0> d   1       1.741  -2.545   4.737  0.00  0.00     0.317 C 
BRANCH  13  14
ATOM     14  N2  <0> d   1       1.031  -2.059   3.547  0.00  0.00     0.096 N 
ATOM     15  C4  <0> d   1       0.782  -0.613   3.636  0.00  0.00     0.303 C 
ATOM     16  C3  <0> d   1      -0.027  -0.161   2.418  0.00  0.00     0.302 C 
ATOM     17  N1  <0> d   1       0.713  -0.491   1.192  0.00  0.00     0.091 N 
ATOM     18  C6  <0> d   1       0.961  -1.936   1.103  0.00  0.00     0.302 C 
ATOM     19  C5  <0> d   1       1.770  -2.389   2.321  0.00  0.00     0.303 C 
BRANCH  17  20
ATOM     20  C2  <0> d   1       0.002  -0.004   0.002  0.00  0.00     0.268 C 
ATOM     21  C1  <0> d   1      -0.019   1.526   0.010  0.00  0.00     0.037 C 
ENDBRANCH  17  20
ENDBRANCH  13  14
ENDBRANCH   1  13
BRANCH   2  22
ATOM     22  O3  <0> d   1      -0.284  -4.101   5.931  0.00  0.00    -0.360 OA
ATOM     23  H26 <0> d   1      -1.027  -3.906   5.343  0.00  0.00     0.217 HD
ENDBRANCH   2  22
BRANCH  10  24
ATOM     24  C18 <0> d   1       6.164  -6.764   2.491  0.00  0.00    -0.019 A 
ATOM     25  C23 <0> d   1       6.483  -6.462   1.167  0.00  0.00     0.012 A 
ATOM     26  C22 <0> d   1       7.565  -7.071   0.565  0.00  0.00     0.001 A 
ATOM     27  C21 <0> d   1       8.325  -7.988   1.268  0.00  0.00     0.000 A 
ATOM     28  C20 <0> d   1       8.011  -8.296   2.579  0.00  0.00     0.001 A 
ATOM     29  C19 <0> d   1       6.935  -7.689   3.194  0.00  0.00     0.012 A 
ENDBRANCH  10  24
TORSDOF 5
