REMARK  5 active torsions:
REMARK  status: ('A' for Active; 'I' for Inactive)
REMARK    1  A    between atoms: C9_10  and  C10_11 
REMARK    2  A    between atoms: C13_14  and  O3_19 
REMARK    3  A    between atoms: C14_15  and  O2_17 
REMARK    4  A    between atoms: N1_24  and  C21_27 
REMARK    5  A    between atoms: C21_27  and  C22_28 
ROOT
ATOM      1  C1  <0> d   1       0.865   1.420   0.031  0.00  0.00     0.054 C 
ATOM      2  C2  <0> d   1       0.556  -0.055   0.015  0.00  0.00     0.007 A 
ATOM      3  C3  <0> d   1       0.484  -0.734  -1.194  0.00  0.00     0.087 A 
ATOM      4  C4  <0> d   1       0.202  -2.095  -1.221  0.00  0.00     0.005 A 
ATOM      5  C5  <0> d   1      -0.011  -2.775  -0.053  0.00  0.00     0.030 A 
ATOM      6  C6  <0> d   1       0.059  -2.105   1.168  0.00  0.00     0.052 A 
ATOM      7  C7  <0> d   1       0.351  -0.732   1.209  0.00  0.00     0.099 A 
ATOM      8  O1  <0> d   1       0.373  -0.310   2.492  0.00  0.00    -0.305 OA
ATOM      9  C8  <0> d   1       0.113  -1.317   3.358  0.00  0.00     0.127 A 
ATOM     10  C9  <0> d   1       0.061  -1.218   4.711  0.00  0.00     0.053 C 
ATOM     11  C18 <0> d   1      -0.115  -2.535   2.567  0.00  0.00     0.218 A 
ATOM     12  O4  <0> d   1      -0.375  -3.653   2.977  0.00  0.00    -0.284 OA
ATOM     13  C19 <0> d   1       0.129  -2.842  -2.529  0.00  0.00     0.317 C 
ATOM     14  N1  <0> d   1      -0.027  -1.885  -3.634  0.00  0.00     0.121 N 
ATOM     15  C20 <0> d   1       0.974  -0.812  -3.521  0.00  0.00     0.448 C 
ATOM     16  O5  <0> d   1       0.692  -0.046  -2.348  0.00  0.00    -0.320 OA
ENDROOT
BRANCH  10  17
ATOM     17  C10 <0> d   1       0.162   0.097   5.355  0.00  0.00    -0.031 A 
ATOM     18  C15 <0> d   1       0.278   0.190   6.748  0.00  0.00     0.051 A 
ATOM     19  C14 <0> d   1       0.379   1.430   7.347  0.00  0.00     0.102 A 
ATOM     20  C13 <0> d   1       0.352   2.586   6.567  0.00  0.00     0.101 A 
ATOM     21  C12 <0> d   1       0.231   2.495   5.187  0.00  0.00     0.040 A 
ATOM     22  C11 <0> d   1       0.136   1.263   4.580  0.00  0.00     0.014 A 
BRANCH  19  23
ATOM     23  O2  <0> d   1       0.499   1.524   8.698  0.00  0.00    -0.353 OA
ATOM     24  C16 <0> d   1       0.520   0.300   9.435  0.00  0.00     0.210 C 
ENDBRANCH  19  23
BRANCH  20  25
ATOM     25  O3  <0> d   1       0.446   3.805   7.160  0.00  0.00    -0.353 OA
ATOM     26  C17 <0> d   1       0.412   4.947   6.303  0.00  0.00     0.210 C 
ENDBRANCH  20  25
ENDBRANCH  10  17
BRANCH  14  27
ATOM     27  C21 <0> d   1       0.071  -2.562  -4.934  0.00  0.00     0.332 C 
BRANCH  27  28
ATOM     28  C22 <0> d   1      -0.334  -1.608  -6.029  0.00  0.00     0.037 A 
ATOM     29  N2  <0> d   1       0.558  -0.778  -6.532  0.00  0.00    -0.368 N 
ATOM     30  C26 <0> d   1       0.250   0.070  -7.495  0.00  0.00     0.088 A 
ATOM     31  H25 <0> d   1       1.465  -0.794  -6.189  0.00  0.00     0.165 HD
ATOM     32  C25 <0> d   1      -1.033   0.125  -8.005  0.00  0.00     0.017 A 
ATOM     33  C24 <0> d   1      -2.000  -0.728  -7.495  0.00  0.00     0.003 A 
ATOM     34  C23 <0> d   1      -1.638  -1.610  -6.489  0.00  0.00     0.027 A 
ENDBRANCH  27  28
ENDBRANCH  14  27
TORSDOF 5
