REMARK  6 active torsions:
REMARK  status: ('A' for Active; 'I' for Inactive)
REMARK    1  A    between atoms: O1_2  and  C2_3 
REMARK    2  A    between atoms: C5_6  and  C9_11 
REMARK    3  A    between atoms: C7_8  and  O2_9 
REMARK    4  A    between atoms: C15_17  and  C18_22 
REMARK    5  A    between atoms: C18_22  and  N1_23 
REMARK    6  A    between atoms: C23_28  and  C24_29 
ROOT
ATOM      1  C9  <0> d   1       1.555   5.768  -4.184  0.00  0.00     0.051 A 
ATOM      2  C10 <0> d   1       2.684   5.223  -3.634  0.00  0.00     0.032 A 
ATOM      3  C11 <0> d   1       2.605   3.938  -3.039  0.00  0.00    -0.000 A 
ATOM      4  C12 <0> d   1       3.745   3.354  -2.467  0.00  0.00     0.017 A 
ATOM      5  C13 <0> d   1       3.664   2.119  -1.897  0.00  0.00     0.041 A 
ATOM      6  C14 <0> d   1       2.454   1.429  -1.877  0.00  0.00     0.118 A 
ATOM      7  C15 <0> d   1       1.317   1.989  -2.435  0.00  0.00     0.039 A 
ATOM      8  C16 <0> d   1       1.382   3.244  -3.026  0.00  0.00     0.100 A 
ATOM      9  O3  <0> d   1       0.272   3.792  -3.567  0.00  0.00    -0.273 OA
ATOM     10  C17 <0> d   1       0.304   5.006  -4.141  0.00  0.00     0.299 A 
ATOM     11  O4  <0> d   1      -0.709   5.476  -4.625  0.00  0.00    -0.259 OA
ATOM     12  O5  <0> d   1       2.388   0.200  -1.304  0.00  0.00    -0.191 OA
ENDROOT
BRANCH   7  13
ATOM     13  C18 <0> d   1       0.013   1.235  -2.408  0.00  0.00     0.280 C 
BRANCH  13  14
ATOM     14  N1  <0> d   1      -0.723   1.572  -1.182  0.00  0.00    -0.059 N 
ATOM     15  C23 <0> d   1      -2.095   1.052  -1.231  0.00  0.00     0.223 C 
ATOM     16  C22 <0> d   1      -2.873   1.544  -0.009  0.00  0.00     0.038 C 
ATOM     17  C21 <0> d   1      -2.170   1.064   1.264  0.00  0.00     0.004 C 
ATOM     18  C20 <0> d   1      -0.729   1.579   1.267  0.00  0.00     0.028 C 
ATOM     19  C19 <0> d   1      -0.013   1.086   0.008  0.00  0.00     0.236 C 
ATOM     20  H28 <0> d   1      -0.782   2.668  -1.112  0.00  0.00     0.281 HD
BRANCH  15  21
ATOM     21  C24 <0> d   1      -2.772   1.539  -2.486  0.00  0.00    -0.010 A 
ATOM     22  C28 <0> d   1      -2.579   2.834  -2.928  0.00  0.00     0.125 A 
ATOM     23  N2  <0> d   1      -3.163   3.266  -4.029  0.00  0.00    -0.273 NA
ATOM     24  C27 <0> d   1      -3.957   2.491  -4.742  0.00  0.00     0.116 A 
ATOM     25  C26 <0> d   1      -4.202   1.185  -4.359  0.00  0.00     0.020 A 
ATOM     26  C25 <0> d   1      -3.600   0.695  -3.210  0.00  0.00     0.012 A 
ENDBRANCH  15  21
ENDBRANCH  13  14
ENDBRANCH   7  13
BRANCH   1  27
ATOM     27  C5  <0> d   1       1.597   7.108  -4.815  0.00  0.00    -0.017 A 
ATOM     28  C4  <0> d   1       2.165   8.184  -4.133  0.00  0.00     0.015 A 
ATOM     29  C3  <0> d   1       2.204   9.431  -4.722  0.00  0.00     0.040 A 
ATOM     30  C2  <0> d   1       1.680   9.618  -5.992  0.00  0.00     0.101 A 
ATOM     31  C7  <0> d   1       1.112   8.548  -6.678  0.00  0.00     0.102 A 
ATOM     32  C6  <0> d   1       1.075   7.294  -6.095  0.00  0.00     0.052 A 
BRANCH  30  33
ATOM     33  O1  <0> d   1       1.722  10.849  -6.569  0.00  0.00    -0.353 OA
ATOM     34  C1  <0> d   1       2.319  11.902  -5.809  0.00  0.00     0.210 C 
ENDBRANCH  30  33
BRANCH  31  35
ATOM     35  O2  <0> d   1       0.600   8.734  -7.924  0.00  0.00    -0.353 OA
ATOM     36  C8  <0> d   1       0.033   7.592  -8.570  0.00  0.00     0.210 C 
ENDBRANCH  31  35
ENDBRANCH   1  27
TORSDOF 6
