REMARK  6 active torsions:
REMARK  status: ('A' for Active; 'I' for Inactive)
REMARK    1  A    between atoms: C2_2  and  N1_3 
REMARK    2  A    between atoms: N2_6  and  C7_9 
REMARK    3  A    between atoms: C7_9  and  C8_10 
REMARK    4  A    between atoms: C9_11  and  O4_29 
REMARK    5  A    between atoms: C15_18  and  C16_19 
REMARK    6  A    between atoms: C21_24  and  O2_25 
ROOT
ATOM      1  C8  <0> d   1       0.058   0.134  -1.014  0.00  0.00     0.038 A 
ATOM      2  C9  <0> d   1       1.275  -0.505  -1.191  0.00  0.00     0.076 A 
ATOM      3  C10 <0> d   1       2.469   0.200  -1.066  0.00  0.00     0.038 A 
ATOM      4  C11 <0> d   1       2.451   1.533  -0.767  0.00  0.00     0.021 A 
ATOM      5  C12 <0> d   1       1.234   2.189  -0.586  0.00  0.00     0.051 A 
ATOM      6  C13 <0> d   1       0.022   1.489  -0.709  0.00  0.00     0.101 A 
ATOM      7  O1  <0> d   1      -1.013   2.330  -0.498  0.00  0.00    -0.305 OA
ATOM      8  C14 <0> d   1      -0.592   3.587  -0.222  0.00  0.00     0.128 A 
ATOM      9  C15 <0> d   1      -1.384   4.659   0.040  0.00  0.00     0.055 C 
ATOM     10  C23 <0> d   1       0.877   3.583  -0.263  0.00  0.00     0.218 A 
ATOM     11  O3  <0> d   1       1.631   4.521  -0.074  0.00  0.00    -0.284 OA
ENDROOT
BRANCH   1  12
ATOM     12  C7  <0> d   1      -1.227  -0.641  -1.153  0.00  0.00     0.317 C 
BRANCH  12  13
ATOM     13  N2  <0> d   1      -1.681  -0.590  -2.549  0.00  0.00     0.096 N 
ATOM     14  C4  <0> d   1      -2.794  -1.523  -2.776  0.00  0.00     0.303 C 
ATOM     15  C3  <0> d   1      -3.184  -1.498  -4.255  0.00  0.00     0.302 C 
ATOM     16  N1  <0> d   1      -3.562  -0.130  -4.637  0.00  0.00     0.091 N 
ATOM     17  C6  <0> d   1      -2.449   0.803  -4.410  0.00  0.00     0.302 C 
ATOM     18  C5  <0> d   1      -2.059   0.778  -2.930  0.00  0.00     0.303 C 
BRANCH  16  19
ATOM     19  C2  <0> d   1      -4.016  -0.078  -6.033  0.00  0.00     0.268 C 
ATOM     20  C1  <0> d   1      -4.631   1.293  -6.319  0.00  0.00     0.037 C 
ENDBRANCH  16  19
ENDBRANCH  12  13
ENDBRANCH   1  12
BRANCH   2  21
ATOM     21  O4  <0> d   1       1.303  -1.829  -1.488  0.00  0.00    -0.360 OA
ATOM     22  H26 <0> d   1       2.266  -2.340  -1.630  0.00  0.00     0.217 HD
ENDBRANCH   2  21
BRANCH   9  23
ATOM     23  C16 <0> d   1      -2.843   4.534  -0.057  0.00  0.00    -0.000 A 
ATOM     24  C21 <0> d   1      -3.646   5.683  -0.155  0.00  0.00     0.078 A 
ATOM     25  C20 <0> d   1      -5.022   5.552  -0.247  0.00  0.00     0.037 A 
ATOM     26  C19 <0> d   1      -5.601   4.298  -0.242  0.00  0.00     0.003 A 
ATOM     27  C18 <0> d   1      -4.814   3.161  -0.146  0.00  0.00     0.001 A 
ATOM     28  C17 <0> d   1      -3.444   3.269  -0.059  0.00  0.00     0.014 A 
BRANCH  24  29
ATOM     29  O2  <0> d   1      -3.076   6.915  -0.160  0.00  0.00    -0.355 OA
ATOM     30  C22 <0> d   1      -3.956   8.036  -0.263  0.00  0.00     0.210 C 
ENDBRANCH  24  29
ENDBRANCH   9  23
TORSDOF 6
