REMARK  7 active torsions:
REMARK  status: ('A' for Active; 'I' for Inactive)
REMARK    1  A    between atoms: C4_4  and  C7_7 
REMARK    2  A    between atoms: C8_8  and  C9_9 
REMARK    3  A    between atoms: C9_9  and  N1_10 
REMARK    4  A    between atoms: N2_13  and  C14_16 
REMARK    5  A    between atoms: C14_16  and  C15_17 
REMARK    6  A    between atoms: C21_25  and  O3_34 
REMARK    7  A    between atoms: C22_26  and  C24_28 
ROOT
ATOM      1  C15 <0> d   1       6.871  -7.822   3.487  0.00  0.00    -0.014 A 
ATOM      2  C16 <0> d   1       7.870  -7.322   4.259  0.00  0.00     0.092 A 
ATOM      3  C17 <0> d   1       9.119  -7.978   4.303  0.00  0.00     0.288 A 
ATOM      4  O1  <0> d   1      10.006  -7.519   5.000  0.00  0.00    -0.260 OA
ATOM      5  O2  <0> d   1       9.353  -9.094   3.596  0.00  0.00    -0.275 OA
ATOM      6  C18 <0> d   1       8.403  -9.643   2.808  0.00  0.00     0.091 A 
ATOM      7  C19 <0> d   1       7.133  -9.044   2.721  0.00  0.00     0.009 A 
ATOM      8  C20 <0> d   1       6.141  -9.609   1.912  0.00  0.00     0.052 A 
ATOM      9  C21 <0> d   1       6.412 -10.759   1.201  0.00  0.00     0.077 A 
ATOM     10  C22 <0> d   1       7.676 -11.360   1.290  0.00  0.00     0.010 A 
ATOM     11  C23 <0> d   1       8.668 -10.796   2.086  0.00  0.00     0.053 A 
ENDROOT
BRANCH   1  12
ATOM     12  C14 <0> d   1       5.528  -7.141   3.423  0.00  0.00     0.274 C 
BRANCH  12  13
ATOM     13  N2  <0> d   1       5.488  -6.244   2.260  0.00  0.00    -0.064 N 
ATOM     14  C11 <0> d   1       4.141  -5.673   2.129  0.00  0.00     0.265 C 
ATOM     15  C10 <0> d   1       4.094  -4.753   0.907  0.00  0.00     0.300 C 
ATOM     16  N1  <0> d   1       5.087  -3.681   1.066  0.00  0.00     0.095 N 
ATOM     17  C13 <0> d   1       6.437  -4.239   1.223  0.00  0.00     0.300 C 
ATOM     18  C12 <0> d   1       6.465  -5.163   2.443  0.00  0.00     0.265 C 
ATOM     19  H29 <0> d   1       5.715  -6.765   1.426  0.00  0.00     0.280 HD
BRANCH  16  20
ATOM     20  C9  <0> d   1       5.033  -2.743  -0.063  0.00  0.00     0.300 C 
BRANCH  20  21
ATOM     21  C8  <0> d   1       3.716  -2.010  -0.046  0.00  0.00     0.004 C 
ATOM     22  C7  <0> d   1       3.695  -0.685  -0.038  0.00  0.00     0.009 C 
BRANCH  22  23
ATOM     23  C4  <0> d   1       2.403   0.034  -0.021  0.00  0.00    -0.036 A 
ATOM     24  C3  <0> d   1       2.377   1.429  -0.013  0.00  0.00     0.011 A 
ATOM     25  C2  <0> d   1       1.168   2.093   0.002  0.00  0.00     0.001 A 
ATOM     26  C1  <0> d   1      -0.017   1.379   0.010  0.00  0.00     0.000 A 
ATOM     27  C6  <0> d   1       0.002  -0.004   0.002  0.00  0.00     0.001 A 
ATOM     28  C5  <0> d   1       1.204  -0.681  -0.013  0.00  0.00     0.011 A 
ENDBRANCH  22  23
ENDBRANCH  20  21
ENDBRANCH  16  20
ENDBRANCH  12  13
ENDBRANCH   1  12
BRANCH   9  29
ATOM     29  O3  <0> d   1       5.452 -11.311   0.413  0.00  0.00    -0.360 OA
ATOM     30  H28 <0> d   1       5.454 -10.983  -0.497  0.00  0.00     0.217 HD
ENDBRANCH   9  29
BRANCH  10  31
ATOM     31  C24 <0> d   1       7.960 -12.596   0.524  0.00  0.00    -0.023 A 
ATOM     32  C29 <0> d   1       7.082 -13.677   0.588  0.00  0.00     0.012 A 
ATOM     33  C28 <0> d   1       7.348 -14.823  -0.133  0.00  0.00     0.001 A 
ATOM     34  C27 <0> d   1       8.491 -14.906  -0.908  0.00  0.00     0.000 A 
ATOM     35  C26 <0> d   1       9.369 -13.839  -0.971  0.00  0.00     0.001 A 
ATOM     36  C25 <0> d   1       9.110 -12.685  -0.260  0.00  0.00     0.012 A 
ENDBRANCH  10  31
TORSDOF 7
