REMARK  7 active torsions:
REMARK  status: ('A' for Active; 'I' for Inactive)
REMARK    1  A    between atoms: C2_2  and  C3_3 
REMARK    2  A    between atoms: C3_3  and  C4_4 
REMARK    3  A    between atoms: C4_4  and  N1_5 
REMARK    4  A    between atoms: N1_5  and  C6_7 
REMARK    5  A    between atoms: C6_7  and  C7_8 
REMARK    6  A    between atoms: C8_9  and  O3_29 
REMARK    7  A    between atoms: C14_16  and  C15_17 
ROOT
ATOM      1  C7  <0> d   1       2.314  10.228   0.034  0.00  0.00     0.035 A 
ATOM      2  C8  <0> d   1       2.148  11.604   0.042  0.00  0.00     0.076 A 
ATOM      3  C9  <0> d   1       0.874  12.163   0.056  0.00  0.00     0.038 A 
ATOM      4  C10 <0> d   1      -0.231  11.359   0.062  0.00  0.00     0.021 A 
ATOM      5  C11 <0> d   1      -0.080   9.972   0.054  0.00  0.00     0.051 A 
ATOM      6  C12 <0> d   1       1.202   9.397   0.040  0.00  0.00     0.101 A 
ATOM      7  O1  <0> d   1       1.075   8.053   0.035  0.00  0.00    -0.305 OA
ATOM      8  C13 <0> d   1      -0.226   7.678   0.045  0.00  0.00     0.128 A 
ATOM      9  C14 <0> d   1      -0.685   6.396   0.042  0.00  0.00     0.055 C 
ATOM     10  C24 <0> d   1      -1.032   8.848   0.052  0.00  0.00     0.218 A 
ATOM     11  O2  <0> d   1      -2.250   8.908   0.058  0.00  0.00    -0.284 OA
ENDROOT
BRANCH   9  12
ATOM     12  C15 <0> d   1       0.260   5.281   0.028  0.00  0.00    -0.005 A 
ATOM     13  C18 <0> d   1      -0.067   3.842   0.023  0.00  0.00     0.002 A 
ATOM     14  C17 <0> d   1       1.163   3.166   0.008  0.00  0.00     0.045 A 
ATOM     15  C19 <0> d   1      -1.260   3.124   0.031  0.00  0.00     0.014 A 
ATOM     16  N2  <0> d   1       2.164   4.115   0.004  0.00  0.00    -0.360 N 
ATOM     17  C22 <0> d   1       1.175   1.774   0.000  0.00  0.00     0.030 A 
ATOM     18  C16 <0> d   1       1.636   5.364   0.015  0.00  0.00     0.103 A 
ATOM     19  C23 <0> d   1       3.598   3.816  -0.012  0.00  0.00     0.156 C 
ATOM     20  C21 <0> d   1      -0.013   1.076   0.008  0.00  0.00     0.002 A 
ATOM     21  C20 <0> d   1      -1.227   1.746   0.017  0.00  0.00     0.001 A 
ENDBRANCH   9  12
BRANCH   1  22
ATOM     22  C6  <0> d   1       3.699   9.635   0.018  0.00  0.00     0.278 C 
BRANCH  22  23
ATOM     23  N1  <0> d   1       4.136   9.449  -1.372  0.00  0.00    -0.071 N 
ATOM     24  C5  <0> d   1       3.315   8.438  -2.052  0.00  0.00     0.270 C 
ATOM     25  H26 <0> d   1       4.000  10.405  -1.900  0.00  0.00     0.279 HD
BRANCH  23  26
ATOM     26  C4  <0> d   1       5.561   9.098  -1.434  0.00  0.00     0.234 C 
BRANCH  26  27
ATOM     27  C3  <0> d   1       6.039   9.157  -2.886  0.00  0.00     0.027 C 
BRANCH  27  28
ATOM     28  C2  <0> d   1       7.523   8.791  -2.950  0.00  0.00    -0.003 C 
ATOM     29  C1  <0> d   1       8.001   8.850  -4.402  0.00  0.00     0.005 C 
ENDBRANCH  27  28
ENDBRANCH  26  27
ENDBRANCH  23  26
ENDBRANCH  22  23
ENDBRANCH   1  22
BRANCH   2  30
ATOM     30  O3  <0> d   1       3.238  12.413   0.036  0.00  0.00    -0.360 OA
ATOM     31  H27 <0> d   1       3.112  13.506   0.042  0.00  0.00     0.217 HD
ENDBRANCH   2  30
TORSDOF 7
