REMARK  5 active torsions:
REMARK  status: ('A' for Active; 'I' for Inactive)
REMARK    1  A    between atoms: C9_10  and  C10_11 
REMARK    2  A    between atoms: N1_19  and  C17_22 
REMARK    3  A    between atoms: C17_22  and  C18_23 
REMARK    4  A    between atoms: C18_23  and  C19_24 
REMARK    5  A    between atoms: C19_24  and  N2_25 
ROOT
ATOM      1  C1  <0> d   1      -0.018   1.503   0.010  0.00  0.00     0.054 C 
ATOM      2  C2  <0> d   1       0.002  -0.004   0.002  0.00  0.00     0.007 A 
ATOM      3  C3  <0> d   1       0.006  -0.690  -1.205  0.00  0.00     0.087 A 
ATOM      4  C4  <0> d   1       0.026  -2.081  -1.223  0.00  0.00     0.005 A 
ATOM      5  C5  <0> d   1       0.040  -2.784  -0.049  0.00  0.00     0.030 A 
ATOM      6  C6  <0> d   1       0.036  -2.107   1.169  0.00  0.00     0.052 A 
ATOM      7  C7  <0> d   1       0.023  -0.703   1.200  0.00  0.00     0.099 A 
ATOM      8  O1  <0> d   1       0.030  -0.296   2.488  0.00  0.00    -0.305 OA
ATOM      9  C8  <0> d   1       0.050  -1.348   3.339  0.00  0.00     0.128 A 
ATOM     10  C9  <0> d   1       0.060  -1.271   4.701  0.00  0.00     0.060 C 
ATOM     11  C14 <0> d   1       0.047  -2.546   2.576  0.00  0.00     0.218 A 
ATOM     12  O2  <0> d   1       0.062  -3.692   2.995  0.00  0.00    -0.284 OA
ATOM     13  C15 <0> d   1       0.038  -2.834  -2.530  0.00  0.00     0.316 C 
ATOM     14  N1  <0> d   1      -0.391  -1.942  -3.616  0.00  0.00     0.116 N 
ATOM     15  C16 <0> d   1       0.357  -0.676  -3.558  0.00  0.00     0.447 C 
ATOM     16  O3  <0> d   1      -0.013   0.018  -2.365  0.00  0.00    -0.320 OA
ENDROOT
BRANCH  14  17
ATOM     17  C17 <0> d   1      -0.229  -2.590  -4.924  0.00  0.00     0.277 C 
BRANCH  17  18
ATOM     18  C18 <0> d   1      -0.909  -1.743  -6.001  0.00  0.00     0.058 C 
BRANCH  18  19
ATOM     19  C19 <0> d   1      -0.740  -2.418  -7.364  0.00  0.00     0.236 C 
BRANCH  19  20
ATOM     20  N2  <0> d   1      -1.393  -1.604  -8.398  0.00  0.00    -0.067 N 
ATOM     21  C23 <0> d   1      -1.129  -2.188  -9.720  0.00  0.00     0.261 C 
ATOM     22  C22 <0> d   1      -1.811  -1.339 -10.796  0.00  0.00     0.195 C 
ATOM     23  O4  <0> d   1      -3.213  -1.268 -10.523  0.00  0.00    -0.388 OA
ATOM     24  C21 <0> d   1      -3.521  -0.728  -9.235  0.00  0.00     0.195 C 
ATOM     25  C20 <0> d   1      -2.842  -1.576  -8.156  0.00  0.00     0.261 C 
ATOM     26  H27 <0> d   1      -1.028  -0.664  -8.366  0.00  0.00     0.280 HD
ENDBRANCH  19  20
ENDBRANCH  18  19
ENDBRANCH  17  18
ENDBRANCH  14  17
BRANCH  10  27
ATOM     27  C10 <0> d   1       0.051  -0.010   5.338  0.00  0.00     0.007 A 
ATOM     28  S1  <0> d   1       0.026   1.617   4.608  0.00  0.00    -0.102 SA
ATOM     29  C13 <0> d   1       0.024   2.539   6.012  0.00  0.00     0.050 A 
ATOM     30  C12 <0> d   1       0.050   1.624   7.014  0.00  0.00     0.008 A 
ATOM     31  C11 <0> d   1       0.064   0.287   6.698  0.00  0.00     0.019 A 
ENDBRANCH  10  27
TORSDOF 5
