REMARK  6 active torsions:
REMARK  status: ('A' for Active; 'I' for Inactive)
REMARK    1  A    between atoms: C4_4  and  C7_7 
REMARK    2  A    between atoms: C7_7  and  C8_8 
REMARK    3  A    between atoms: C12_12  and  O2_30 
REMARK    4  A    between atoms: C13_13  and  C15_17 
REMARK    5  A    between atoms: C15_17  and  N2_18 
REMARK    6  A    between atoms: N3_21  and  C20_24 
ROOT
ATOM      1  C8  <0> d   1       4.467  -0.935   1.389  0.00  0.00     0.079 A 
ATOM      2  C9  <0> d   1       5.370  -0.201   2.279  0.00  0.00     0.028 A 
ATOM      3  C10 <0> d   1       6.176   0.929   2.118  0.00  0.00     0.019 A 
ATOM      4  C11 <0> d   1       6.925   1.385   3.164  0.00  0.00     0.038 A 
ATOM      5  C12 <0> d   1       6.893   0.730   4.394  0.00  0.00     0.076 A 
ATOM      6  C13 <0> d   1       6.102  -0.391   4.571  0.00  0.00     0.038 A 
ATOM      7  C14 <0> d   1       5.333  -0.866   3.517  0.00  0.00     0.124 A 
ATOM      8  O1  <0> d   1       4.485  -1.906   3.383  0.00  0.00    -0.212 OA
ATOM      9  N1  <0> d   1       3.966  -1.920   2.068  0.00  0.00    -0.131 NA
ENDROOT
BRANCH   6  10
ATOM     10  C15 <0> d   1       6.074  -1.094   5.904  0.00  0.00     0.279 C 
BRANCH  10  11
ATOM     11  N2  <0> d   1       5.013  -0.516   6.740  0.00  0.00    -0.064 N 
ATOM     12  C19 <0> d   1       4.908  -1.279   7.990  0.00  0.00     0.255 C 
ATOM     13  C18 <0> d   1       3.728  -0.750   8.812  0.00  0.00     0.152 C 
ATOM     14  N3  <0> d   1       3.901   0.699   8.998  0.00  0.00    -0.363 N 
ATOM     15  C17 <0> d   1       4.176   1.522   7.810  0.00  0.00     0.152 C 
ATOM     16  C16 <0> d   1       5.334   0.886   7.035  0.00  0.00     0.255 C 
ATOM     17  H25 <0> d   1       4.135  -0.561   6.245  0.00  0.00     0.280 HD
BRANCH  14  18
ATOM     18  C20 <0> d   1       3.808   1.273  10.260  0.00  0.00     0.125 A 
ATOM     19  N4  <0> d   1       3.763   0.498  11.332  0.00  0.00    -0.244 NA
ATOM     20  C24 <0> d   1       3.680   1.004  12.549  0.00  0.00     0.119 A 
ATOM     21  C23 <0> d   1       3.625   2.369  12.746  0.00  0.00     0.019 A 
ATOM     22  C22 <0> d   1       3.664   3.217  11.646  0.00  0.00     0.005 A 
ATOM     23  C21 <0> d   1       3.757   2.658  10.385  0.00  0.00     0.050 A 
ENDBRANCH  14  18
ENDBRANCH  10  11
ENDBRANCH   6  10
BRANCH   5  24
ATOM     24  O2  <0> d   1       7.644   1.194   5.425  0.00  0.00    -0.360 OA
ATOM     25  H24 <0> d   1       7.191   1.844   5.981  0.00  0.00     0.217 HD
ENDBRANCH   5  24
BRANCH   1  26
ATOM     26  C7  <0> d   1       4.171  -0.603  -0.051  0.00  0.00     0.101 C 
BRANCH  26  27
ATOM     27  C4  <0> d   1       2.997   0.340  -0.118  0.00  0.00    -0.052 A 
ATOM     28  C3  <0> d   1       3.205   1.706  -0.086  0.00  0.00     0.007 A 
ATOM     29  C2  <0> d   1       2.128   2.571  -0.148  0.00  0.00     0.001 A 
ATOM     30  C1  <0> d   1       0.843   2.069  -0.242  0.00  0.00     0.000 A 
ATOM     31  C6  <0> d   1       0.635   0.703  -0.273  0.00  0.00     0.001 A 
ATOM     32  C5  <0> d   1       1.712  -0.162  -0.210  0.00  0.00     0.007 A 
ENDBRANCH  26  27
ENDBRANCH   1  26
TORSDOF 6
