REMARK  6 active torsions:
REMARK  status: ('A' for Active; 'I' for Inactive)
REMARK    1  A    between atoms: N2_5  and  C6_8 
REMARK    2  A    between atoms: C6_8  and  C7_9 
REMARK    3  A    between atoms: C8_10  and  O5_30 
REMARK    4  A    between atoms: C14_17  and  C15_18 
REMARK    5  A    between atoms: C17_20  and  O3_26 
REMARK    6  A    between atoms: C20_23  and  O2_24 
ROOT
ATOM      1  C7  <0> d   1       0.013  -3.741   2.749  0.00  0.00     0.038 A 
ATOM      2  C8  <0> d   1       1.368  -3.787   3.033  0.00  0.00     0.076 A 
ATOM      3  C9  <0> d   1       1.821  -4.319   4.237  0.00  0.00     0.038 A 
ATOM      4  C10 <0> d   1       0.929  -4.801   5.154  0.00  0.00     0.021 A 
ATOM      5  C11 <0> d   1      -0.438  -4.760   4.881  0.00  0.00     0.051 A 
ATOM      6  C12 <0> d   1      -0.908  -4.221   3.672  0.00  0.00     0.101 A 
ATOM      7  O1  <0> d   1      -2.256  -4.284   3.639  0.00  0.00    -0.305 OA
ATOM      8  C13 <0> d   1      -2.763  -4.835   4.767  0.00  0.00     0.128 A 
ATOM      9  C14 <0> d   1      -4.077  -5.039   5.040  0.00  0.00     0.055 C 
ATOM     10  C23 <0> d   1      -1.630  -5.187   5.636  0.00  0.00     0.218 A 
ATOM     11  O4  <0> d   1      -1.669  -5.702   6.740  0.00  0.00    -0.284 OA
ENDROOT
BRANCH   9  12
ATOM     12  C15 <0> d   1      -5.105  -4.505   4.140  0.00  0.00     0.003 A 
ATOM     13  C20 <0> d   1      -6.437  -4.398   4.572  0.00  0.00     0.078 A 
ATOM     14  C19 <0> d   1      -7.400  -3.888   3.717  0.00  0.00     0.040 A 
ATOM     15  C18 <0> d   1      -7.054  -3.495   2.438  0.00  0.00     0.039 A 
ATOM     16  C17 <0> d   1      -5.739  -3.603   2.000  0.00  0.00     0.069 A 
ATOM     17  C16 <0> d   1      -4.765  -4.104   2.842  0.00  0.00     0.051 A 
BRANCH  13  18
ATOM     18  O2  <0> d   1      -6.779  -4.788   5.827  0.00  0.00    -0.355 OA
ATOM     19  C21 <0> d   1      -8.152  -4.650   6.198  0.00  0.00     0.210 C 
ENDBRANCH  13  18
BRANCH  16  20
ATOM     20  O3  <0> d   1      -5.411  -3.213   0.740  0.00  0.00    -0.356 OA
ATOM     21  C22 <0> d   1      -6.467  -2.704  -0.078  0.00  0.00     0.210 C 
ENDBRANCH  16  20
ENDBRANCH   9  12
BRANCH   1  22
ATOM     22  C6  <0> d   1      -0.463  -3.163   1.441  0.00  0.00     0.317 C 
BRANCH  22  23
ATOM     23  N2  <0> d   1      -0.691  -1.720   1.597  0.00  0.00     0.096 N 
ATOM     24  C3  <0> d   1      -1.377  -1.165   0.422  0.00  0.00     0.303 C 
ATOM     25  C2  <0> d   1      -1.665   0.320   0.657  0.00  0.00     0.302 C 
ATOM     26  N1  <0> d   1      -0.402   1.028   0.909  0.00  0.00     0.087 N 
ATOM     27  C1  <0> d   1      -0.630   2.470   1.065  0.00  0.00     0.310 C 
ATOM     28  C5  <0> d   1       0.283   0.472   2.084  0.00  0.00     0.302 C 
ATOM     29  C4  <0> d   1       0.572  -1.012   1.849  0.00  0.00     0.303 C 
ENDBRANCH  22  23
ENDBRANCH   1  22
BRANCH   2  30
ATOM     30  O5  <0> d   1       2.262  -3.312   2.129  0.00  0.00    -0.360 OA
ATOM     31  H26 <0> d   1       2.471  -2.374   2.239  0.00  0.00     0.217 HD
ENDBRANCH   2  30
TORSDOF 6
