REMARK  9 active torsions:
REMARK  status: ('A' for Active; 'I' for Inactive)
REMARK    1  A    between atoms: C3_3  and  O4_21 
REMARK    2  A    between atoms: C9_10  and  C11_13 
REMARK    3  A    between atoms: C14_16  and  O3_19 
REMARK    4  A    between atoms: O4_21  and  C18_22 
REMARK    5  A    between atoms: C18_22  and  C19_23 
REMARK    6  A    between atoms: C19_23  and  N1_24 
REMARK    7  A    between atoms: N2_27  and  C24_30 
REMARK    8  A    between atoms: C24_30  and  C25_31 
REMARK    9  A    between atoms: C25_31  and  O5_32 
ROOT
ATOM      1  C1  <0> d   1       1.440  -2.445  -0.167  0.00  0.00     0.054 C 
ATOM      2  C2  <0> d   1       1.563  -0.955   0.018  0.00  0.00     0.006 A 
ATOM      3  C3  <0> d   1       0.427  -0.176   0.157  0.00  0.00     0.077 A 
ATOM      4  C4  <0> d   1       0.528   1.203   0.329  0.00  0.00     0.038 A 
ATOM      5  C5  <0> d   1       1.754   1.805   0.363  0.00  0.00     0.021 A 
ATOM      6  C6  <0> d   1       2.908   1.034   0.224  0.00  0.00     0.049 A 
ATOM      7  C7  <0> d   1       2.817  -0.359   0.050  0.00  0.00     0.097 A 
ATOM      8  O1  <0> d   1       3.933  -1.102  -0.083  0.00  0.00    -0.320 OA
ATOM      9  C8  <0> d   1       5.165  -0.586  -0.060  0.00  0.00     0.159 A 
ATOM     10  C9  <0> d   1       5.398   0.742   0.101  0.00  0.00     0.048 A 
ATOM     11  C10 <0> d   1       4.248   1.649   0.256  0.00  0.00     0.197 A 
ATOM     12  O2  <0> d   1       4.396   2.850   0.404  0.00  0.00    -0.286 OA
ENDROOT
BRANCH   3  13
ATOM     13  O4  <0> d   1      -0.797  -0.761   0.126  0.00  0.00    -0.349 OA
BRANCH  13  14
ATOM     14  C18 <0> d   1      -1.931   0.096   0.275  0.00  0.00     0.206 C 
BRANCH  14  15
ATOM     15  C19 <0> d   1      -3.212  -0.737   0.214  0.00  0.00     0.299 C 
BRANCH  15  16
ATOM     16  N1  <0> d   1      -3.260  -1.647   1.367  0.00  0.00     0.093 N 
ATOM     17  C23 <0> d   1      -3.619  -0.923   2.594  0.00  0.00     0.302 C 
ATOM     18  C22 <0> d   1      -3.580  -1.887   3.782  0.00  0.00     0.302 C 
ATOM     19  N2  <0> d   1      -4.511  -2.998   3.538  0.00  0.00     0.093 N 
ATOM     20  C21 <0> d   1      -4.152  -3.722   2.310  0.00  0.00     0.302 C 
ATOM     21  C20 <0> d   1      -4.191  -2.758   1.123  0.00  0.00     0.302 C 
BRANCH  19  22
ATOM     22  C24 <0> d   1      -4.559  -3.908   4.690  0.00  0.00     0.298 C 
BRANCH  22  23
ATOM     23  C25 <0> d   1      -5.382  -3.269   5.811  0.00  0.00     0.194 C 
BRANCH  23  24
ATOM     24  O5  <0> d   1      -6.739  -3.129   5.384  0.00  0.00    -0.399 OA
ATOM     25  H30 <0> d   1      -7.485  -2.686   6.061  0.00  0.00     0.209 HD
ENDBRANCH  23  24
ENDBRANCH  22  23
ENDBRANCH  19  22
ENDBRANCH  15  16
ENDBRANCH  14  15
ENDBRANCH  13  14
ENDBRANCH   3  13
BRANCH  10  26
ATOM     26  C11 <0> d   1       6.784   1.270   0.120  0.00  0.00    -0.020 A 
ATOM     27  C16 <0> d   1       7.743   0.683   0.944  0.00  0.00     0.015 A 
ATOM     28  C15 <0> d   1       9.032   1.176   0.960  0.00  0.00     0.037 A 
ATOM     29  C14 <0> d   1       9.373   2.255   0.156  0.00  0.00     0.068 A 
ATOM     30  C13 <0> d   1       8.421   2.841  -0.666  0.00  0.00     0.037 A 
ATOM     31  C12 <0> d   1       7.132   2.349  -0.690  0.00  0.00     0.015 A 
BRANCH  29  32
ATOM     32  O3  <0> d   1      10.643   2.738   0.173  0.00  0.00    -0.356 OA
ATOM     33  C17 <0> d   1      10.926   3.850  -0.678  0.00  0.00     0.210 C 
ENDBRANCH  29  32
ENDBRANCH  10  26
TORSDOF 9
