REMARK  11 active torsions:
REMARK  status: ('A' for Active; 'I' for Inactive)
REMARK    1  A    between atoms: O1_2  and  C2_3 
REMARK    2  A    between atoms: C2_3  and  C3_4 
REMARK    3  A    between atoms: C3_4  and  N1_5 
REMARK    4  A    between atoms: N1_5  and  C4_6 
REMARK    5  A    between atoms: N1_5  and  C7_10 
REMARK    6  A    between atoms: C4_6  and  C5_7 
REMARK    7  A    between atoms: C5_7  and  O2_8 
REMARK    8  A    between atoms: C7_10  and  C8_11 
REMARK    9  A    between atoms: C15_19  and  C16_20 
REMARK   10  A    between atoms: C20_24  and  O5_28 
REMARK   11  A    between atoms: C21_25  and  O4_26 
ROOT
ATOM      1  C8  <0> d   1       0.106  -3.038   0.101  0.00  0.00     0.039 A 
ATOM      2  C9  <0> d   1       1.339  -3.317   0.668  0.00  0.00     0.118 A 
ATOM      3  C10 <0> d   1       1.423  -3.964   1.898  0.00  0.00     0.041 A 
ATOM      4  C11 <0> d   1       0.285  -4.332   2.559  0.00  0.00     0.021 A 
ATOM      5  C12 <0> d   1      -0.964  -4.058   2.000  0.00  0.00     0.051 A 
ATOM      6  C13 <0> d   1      -1.061  -3.400   0.762  0.00  0.00     0.101 A 
ATOM      7  O3  <0> d   1      -2.361  -3.241   0.433  0.00  0.00    -0.305 OA
ATOM      8  C14 <0> d   1      -3.186  -3.749   1.378  0.00  0.00     0.128 A 
ATOM      9  C15 <0> d   1      -4.544  -3.746   1.344  0.00  0.00     0.055 C 
ATOM     10  C24 <0> d   1      -2.346  -4.316   2.443  0.00  0.00     0.218 A 
ATOM     11  O6  <0> d   1      -2.710  -4.864   3.469  0.00  0.00    -0.284 OA
ATOM     12  O7  <0> d   1       2.475  -2.956   0.019  0.00  0.00    -0.191 OA
ENDROOT
BRANCH   1  13
ATOM     13  C7  <0> d   1       0.030  -2.337  -1.231  0.00  0.00     0.279 C 
BRANCH  13  14
ATOM     14  N1  <0> d   1      -0.008  -0.884  -1.018  0.00  0.00    -0.063 N 
ATOM     15  H29 <0> d   1      -0.734  -0.661  -0.353  0.00  0.00     0.280 HD
BRANCH  14  16
ATOM     16  C3  <0> d   1       1.288  -0.431  -0.497  0.00  0.00     0.261 C 
BRANCH  16  17
ATOM     17  C2  <0> d   1       1.204   1.055  -0.142  0.00  0.00     0.194 C 
BRANCH  17  18
ATOM     18  O1  <0> d   1       0.247   1.242   0.901  0.00  0.00    -0.394 OA
ATOM     19  C1  <0> d   1       0.009   2.612   1.233  0.00  0.00     0.201 C 
ENDBRANCH  17  18
ENDBRANCH  16  17
ENDBRANCH  14  16
BRANCH  14  20
ATOM     20  C4  <0> d   1      -0.287  -0.209  -2.292  0.00  0.00     0.261 C 
BRANCH  20  21
ATOM     21  C5  <0> d   1       0.794  -0.577  -3.311  0.00  0.00     0.194 C 
BRANCH  21  22
ATOM     22  O2  <0> d   1       0.664  -1.956  -3.666  0.00  0.00    -0.394 OA
ATOM     23  C6  <0> d   1       1.693  -2.430  -4.536  0.00  0.00     0.201 C 
ENDBRANCH  21  22
ENDBRANCH  20  21
ENDBRANCH  14  20
ENDBRANCH  13  14
ENDBRANCH   1  13
BRANCH   9  24
ATOM     24  C16 <0> d   1      -5.246  -3.292   0.138  0.00  0.00     0.003 A 
ATOM     25  C21 <0> d   1      -6.606  -2.953   0.199  0.00  0.00     0.111 A 
ATOM     26  C20 <0> d   1      -7.259  -2.519  -0.949  0.00  0.00     0.102 A 
ATOM     27  C19 <0> d   1      -6.570  -2.433  -2.148  0.00  0.00     0.040 A 
ATOM     28  C18 <0> d   1      -5.228  -2.773  -2.211  0.00  0.00     0.004 A 
ATOM     29  C17 <0> d   1      -4.564  -3.199  -1.082  0.00  0.00     0.014 A 
BRANCH  25  30
ATOM     30  O4  <0> d   1      -7.280  -3.043   1.375  0.00  0.00    -0.352 OA
ATOM     31  C22 <0> d   1      -7.290  -1.882   2.207  0.00  0.00     0.210 C 
ENDBRANCH  25  30
BRANCH  26  32
ATOM     32  O5  <0> d   1      -8.576  -2.183  -0.897  0.00  0.00    -0.353 OA
ATOM     33  C23 <0> d   1      -9.184  -1.751  -2.116  0.00  0.00     0.210 C 
ENDBRANCH  26  32
ENDBRANCH   9  24
TORSDOF 11
