REMARK  5 active torsions:
REMARK  status: ('A' for Active; 'I' for Inactive)
REMARK    1  A    between atoms: C8_8  and  C11_13 
REMARK    2  A    between atoms: C11_13  and  N1_14 
REMARK    3  A    between atoms: N2_17  and  C16_20 
REMARK    4  A    between atoms: C16_20  and  C17_21 
REMARK    5  A    between atoms: C17_21  and  C18_22 
ROOT
ATOM      1  N1  <0> d   1      -2.418   9.751  -1.127  0.00  0.00     0.096 N 
ATOM      2  C12 <0> d   1      -1.707   9.277  -2.323  0.00  0.00     0.300 C 
ATOM      3  C13 <0> d   1      -1.617   7.749  -2.287  0.00  0.00     0.265 C 
ATOM      4  N2  <0> d   1      -0.920   7.331  -1.063  0.00  0.00    -0.067 N 
ATOM      5  C14 <0> d   1      -1.631   7.805   0.133  0.00  0.00     0.265 C 
ATOM      6  C15 <0> d   1      -1.722   9.332   0.097  0.00  0.00     0.300 C 
ATOM      7  H28 <0> d   1       0.080   7.789  -1.067  0.00  0.00     0.280 HD
ENDROOT
BRANCH   1   8
ATOM      8  C11 <0> d   1      -2.592  11.209  -1.161  0.00  0.00     0.312 C 
BRANCH   8   9
ATOM      9  C8  <0> d   1      -3.235  11.669   0.122  0.00  0.00    -0.011 A 
ATOM     10  C6  <0> d   1      -4.660  11.437   0.376  0.00  0.00     0.007 A 
ATOM     11  C5  <0> d   1      -5.216  11.877   1.590  0.00  0.00     0.096 A 
ATOM     12  C7  <0> d   1      -5.461  10.774  -0.559  0.00  0.00     0.021 A 
ATOM     13  C4  <0> d   1      -6.564  11.656   1.841  0.00  0.00    -0.027 A 
ATOM     14  O2  <0> d   1      -4.440  12.513   2.494  0.00  0.00    -0.274 OA
ATOM     15  C3  <0> d   1      -7.338  11.005   0.904  0.00  0.00     0.016 A 
ATOM     16  C23 <0> d   1      -7.179  12.127   3.134  0.00  0.00     0.051 C 
ATOM     17  C2  <0> d   1      -6.785  10.567  -0.291  0.00  0.00    -0.060 A 
ATOM     18  C1  <0> d   1      -7.650   9.857  -1.300  0.00  0.00     0.048 C 
ATOM     19  C10 <0> d   1      -3.136  12.733   2.266  0.00  0.00     0.288 A 
ATOM     20  C9  <0> d   1      -2.511  12.313   1.072  0.00  0.00     0.092 A 
ATOM     21  O1  <0> d   1      -2.476  13.310   3.111  0.00  0.00    -0.260 OA
ENDBRANCH   8   9
ENDBRANCH   1   8
BRANCH   4  22
ATOM     22  C16 <0> d   1      -0.746   5.872  -1.028  0.00  0.00     0.241 C 
BRANCH  22  23
ATOM     23  C17 <0> d   1       0.191   5.498   0.121  0.00  0.00     0.087 C 
BRANCH  23  24
ATOM     24  C18 <0> d   1       0.370   4.002   0.156  0.00  0.00     0.035 A 
ATOM     25  N3  <0> d   1      -0.690   3.220   0.229  0.00  0.00    -0.266 NA
ATOM     26  C22 <0> d   1      -0.583   1.906   0.256  0.00  0.00     0.117 A 
ATOM     27  C21 <0> d   1       0.658   1.298   0.221  0.00  0.00     0.019 A 
ATOM     28  C20 <0> d   1       1.795   2.087   0.144  0.00  0.00     0.003 A 
ATOM     29  C19 <0> d   1       1.642   3.464   0.111  0.00  0.00     0.027 A 
ENDBRANCH  23  24
ENDBRANCH  22  23
ENDBRANCH   4  22
TORSDOF 5
