REMARK  2 active torsions:
REMARK  status: ('A' for Active; 'I' for Inactive)
REMARK    1  A    between atoms: C5_5  and  C7_7 
REMARK    2  A    between atoms: C9_9  and  C10_13 
ROOT
ATOM      1  C7  <0> d   1       1.248  -2.162  -0.023  0.00  0.00     0.065 A 
ATOM      2  C8  <0> d   1       0.426  -2.988   0.688  0.00  0.00     0.066 A 
ATOM      3  C9  <0> d   1       0.788  -4.312   0.390  0.00  0.00     0.092 A 
ATOM      4  N1  <0> d   1       1.788  -4.286  -0.467  0.00  0.00    -0.174 NA
ATOM      5  N2  <0> d   1       2.094  -2.948  -0.748  0.00  0.00    -0.277 N 
ATOM      6  H1  <0> d   1       2.787  -2.636  -1.350  0.00  0.00     0.189 HD
ENDROOT
BRANCH   3   7
ATOM      7  C10 <0> d   1       0.152  -5.533   0.946  0.00  0.00     0.032 A 
ATOM      8  C15 <0> d   1       0.609  -6.798   0.565  0.00  0.00     0.119 A 
ATOM      9  C14 <0> d   1       0.014  -7.932   1.093  0.00  0.00     0.042 A 
ATOM     10  O1  <0> d   1       1.637  -6.914  -0.316  0.00  0.00    -0.191 OA
ATOM     11  C13 <0> d   1      -1.035  -7.813   1.985  0.00  0.00     0.022 A 
ATOM     12  C12 <0> d   1      -1.494  -6.561   2.359  0.00  0.00     0.012 A 
ATOM     13  C11 <0> d   1      -0.906  -5.423   1.845  0.00  0.00     0.036 A 
ATOM     14 Br1  <0> d   1      -2.930  -6.411   3.580  0.00  0.00    -0.051 Br
ENDBRANCH   3   7
BRANCH   1  15
ATOM     15  C5  <0> d   1       1.221  -0.683  -0.014  0.00  0.00     0.031 A 
ATOM     16  C4  <0> d   1       2.416   0.041  -0.021  0.00  0.00     0.129 A 
ATOM     17  C3  <0> d   1       2.382   1.423  -0.013  0.00  0.00     0.043 A 
ATOM     18  F1  <0> d   1       3.600  -0.608  -0.037  0.00  0.00    -0.205 F 
ATOM     19  C2  <0> d   1       1.170   2.087   0.002  0.00  0.00     0.003 A 
ATOM     20  C1  <0> d   1      -0.017   1.375   0.010  0.00  0.00     0.001 A 
ATOM     21  C6  <0> d   1       0.002  -0.004   0.002  0.00  0.00     0.017 A 
ENDBRANCH   1  15
TORSDOF 2
