REMARK  3 active torsions:
REMARK  status: ('A' for Active; 'I' for Inactive)
REMARK    1  A    between atoms: C3_3  and  C11_12 
REMARK    2  A    between atoms: C18_20  and  C20_23 
REMARK    3  A    between atoms: C20_23  and  N1_24 
ROOT
ATOM      1  C11 <0> d   1       5.014   3.385   0.485  0.00  0.00     0.051 C 
ATOM      2  C12 <0> d   1       6.065   2.836  -0.193  0.00  0.00     0.127 A 
ATOM      3  C13 <0> d   1       7.375   3.381  -0.277  0.00  0.00     0.218 A 
ATOM      4  O2  <0> d   1       7.783   4.413   0.231  0.00  0.00    -0.284 OA
ATOM      5  C14 <0> d   1       8.135   2.431  -1.107  0.00  0.00     0.051 A 
ATOM      6  C15 <0> d   1       9.456   2.389  -1.554  0.00  0.00     0.021 A 
ATOM      7  C16 <0> d   1       9.876   1.351  -2.338  0.00  0.00     0.041 A 
ATOM      8  C17 <0> d   1       8.990   0.336  -2.690  0.00  0.00     0.118 A 
ATOM      9  C18 <0> d   1       7.676   0.365  -2.253  0.00  0.00     0.041 A 
ATOM     10  C19 <0> d   1       7.234   1.412  -1.457  0.00  0.00     0.101 A 
ATOM     11  O3  <0> d   1       6.032   1.685  -0.903  0.00  0.00    -0.305 OA
ATOM     12  O5  <0> d   1       9.418  -0.691  -3.469  0.00  0.00    -0.191 OA
ENDROOT
BRANCH   1  13
ATOM     13  C3  <0> d   1       3.795   2.689   0.578  0.00  0.00    -0.026 C 
ATOM     14  C2  <0> d   1       2.515   3.337   0.120  0.00  0.00     0.158 C 
ATOM     15  C1  <0> d   1       2.828   4.352  -0.982  0.00  0.00     0.045 C 
ATOM     16  O1  <0> d   1       1.610   2.355  -0.385  0.00  0.00    -0.341 OA
ATOM     17  C10 <0> d   1       1.405   1.249   0.372  0.00  0.00     0.080 A 
ATOM     18  C5  <0> d   1       2.469   0.736   1.136  0.00  0.00    -0.002 A 
ATOM     19  C9  <0> d   1       0.174   0.620   0.406  0.00  0.00     0.037 A 
ATOM     20  C4  <0> d   1       3.767   1.423   1.082  0.00  0.00     0.024 C 
ATOM     21  C6  <0> d   1       2.279  -0.401   1.922  0.00  0.00     0.014 A 
ATOM     22  C7  <0> d   1       1.044  -1.014   1.943  0.00  0.00     0.001 A 
ATOM     23  C8  <0> d   1      -0.004  -0.503   1.194  0.00  0.00     0.003 A 
ENDBRANCH   1  13
BRANCH   9  24
ATOM     24  C20 <0> d   1       6.727  -0.740  -2.642  0.00  0.00     0.317 C 
BRANCH  24  25
ATOM     25  N1  <0> d   1       6.175  -0.464  -3.975  0.00  0.00     0.097 N 
ATOM     26  C24 <0> d   1       5.435  -1.625  -4.489  0.00  0.00     0.299 C 
ATOM     27  C23 <0> d   1       4.929  -1.318  -5.901  0.00  0.00     0.198 C 
ATOM     28  O4  <0> d   1       4.126  -0.135  -5.867  0.00  0.00    -0.388 OA
ATOM     29  C22 <0> d   1       4.816   1.016  -5.373  0.00  0.00     0.198 C 
ATOM     30  C21 <0> d   1       5.321   0.732  -3.955  0.00  0.00     0.299 C 
ENDBRANCH  24  25
ENDBRANCH   9  24
TORSDOF 3
