REMARK  6 active torsions:
REMARK  status: ('A' for Active; 'I' for Inactive)
REMARK    1  A    between atoms: N2_5  and  C6_8 
REMARK    2  A    between atoms: C6_8  and  C7_9 
REMARK    3  A    between atoms: C8_10  and  O5_30 
REMARK    4  A    between atoms: C14_17  and  C15_18 
REMARK    5  A    between atoms: C18_21  and  O3_26 
REMARK    6  A    between atoms: C19_22  and  O2_24 
ROOT
ATOM      1  C7  <0> d   1       2.321  -4.036   1.199  0.00  0.00     0.038 A 
ATOM      2  C8  <0> d   1       3.643  -4.314   0.888  0.00  0.00     0.076 A 
ATOM      3  C9  <0> d   1       4.438  -5.048   1.764  0.00  0.00     0.038 A 
ATOM      4  C10 <0> d   1       3.920  -5.502   2.944  0.00  0.00     0.021 A 
ATOM      5  C11 <0> d   1       2.591  -5.229   3.271  0.00  0.00     0.051 A 
ATOM      6  C12 <0> d   1       1.781  -4.486   2.398  0.00  0.00     0.101 A 
ATOM      7  O1  <0> d   1       0.547  -4.347   2.929  0.00  0.00    -0.305 OA
ATOM      8  C13 <0> d   1       0.447  -4.951   4.136  0.00  0.00     0.127 A 
ATOM      9  C14 <0> d   1      -0.658  -4.992   4.924  0.00  0.00     0.053 C 
ATOM     10  C23 <0> d   1       1.749  -5.565   4.434  0.00  0.00     0.218 A 
ATOM     11  O4  <0> d   1       2.065  -6.200   5.425  0.00  0.00    -0.284 OA
ENDROOT
BRANCH   9  12
ATOM     12  C15 <0> d   1      -1.934  -4.463   4.427  0.00  0.00    -0.031 A 
ATOM     13  C20 <0> d   1      -3.031  -4.350   5.289  0.00  0.00     0.051 A 
ATOM     14  C19 <0> d   1      -4.227  -3.846   4.817  0.00  0.00     0.102 A 
ATOM     15  C18 <0> d   1      -4.343  -3.462   3.481  0.00  0.00     0.101 A 
ATOM     16  C17 <0> d   1      -3.257  -3.579   2.623  0.00  0.00     0.040 A 
ATOM     17  C16 <0> d   1      -2.059  -4.074   3.087  0.00  0.00     0.014 A 
BRANCH  14  18
ATOM     18  O2  <0> d   1      -5.293  -3.729   5.653  0.00  0.00    -0.353 OA
ATOM     19  C21 <0> d   1      -5.103  -4.141   7.008  0.00  0.00     0.210 C 
ENDBRANCH  14  18
BRANCH  15  20
ATOM     20  O3  <0> d   1      -5.522  -2.971   3.018  0.00  0.00    -0.353 OA
ATOM     21  C22 <0> d   1      -5.572  -2.597   1.640  0.00  0.00     0.210 C 
ENDBRANCH  15  20
ENDBRANCH   9  12
BRANCH   1  22
ATOM     22  C6  <0> d   1       1.473  -3.241   0.241  0.00  0.00     0.317 C 
BRANCH  22  23
ATOM     23  N2  <0> d   1       1.596  -1.810   0.550  0.00  0.00     0.096 N 
ATOM     24  C3  <0> d   1       0.978  -0.989  -0.501  0.00  0.00     0.303 C 
ATOM     25  C2  <0> d   1       1.197   0.492  -0.183  0.00  0.00     0.302 C 
ATOM     26  N1  <0> d   1       0.616   0.799   1.131  0.00  0.00     0.087 N 
ATOM     27  C1  <0> d   1       0.739   2.230   1.440  0.00  0.00     0.310 C 
ATOM     28  C5  <0> d   1       1.234  -0.021   2.182  0.00  0.00     0.302 C 
ATOM     29  C4  <0> d   1       1.015  -1.503   1.864  0.00  0.00     0.303 C 
ENDBRANCH  22  23
ENDBRANCH   1  22
BRANCH   2  30
ATOM     30  O5  <0> d   1       4.166  -3.869  -0.282  0.00  0.00    -0.360 OA
ATOM     31  H26 <0> d   1       4.569  -2.991  -0.224  0.00  0.00     0.217 HD
ENDBRANCH   2  30
TORSDOF 6
