REMARK  4 active torsions:
REMARK  status: ('A' for Active; 'I' for Inactive)
REMARK    1  A    between atoms: C4_5  and  N2_7 
REMARK    2  A    between atoms: N3_10  and  C10_13 
REMARK    3  A    between atoms: C10_13  and  C11_14 
REMARK    4  A    between atoms: C17_22  and  O3_25 
ROOT
ATOM      1  C10 <0> d   1       1.341  -5.739  -2.002  0.00  0.00     0.274 C 
ENDROOT
BRANCH   1   2
ATOM      2  N3  <0> d   1       1.319  -4.675  -0.989  0.00  0.00    -0.064 N 
ATOM      3  C7  <0> d   1       2.500  -3.819  -1.156  0.00  0.00     0.255 C 
ATOM      4  C6  <0> d   1       2.540  -2.779  -0.031  0.00  0.00     0.152 C 
ATOM      5  N2  <0> d   1       1.260  -2.054  -0.021  0.00  0.00    -0.363 N 
ATOM      6  C9  <0> d   1       0.018  -2.840  -0.013  0.00  0.00     0.152 C 
ATOM      7  C8  <0> d   1       0.097  -3.877  -1.145  0.00  0.00     0.255 C 
ATOM      8  H20 <0> d   1       1.334  -5.090  -0.069  0.00  0.00     0.280 HD
BRANCH   5   9
ATOM      9  C4  <0> d   1       1.227  -0.664  -0.013  0.00  0.00     0.125 A 
ATOM     10  N1  <0> d   1       2.340   0.020  -0.229  0.00  0.00    -0.244 NA
ATOM     11  C3  <0> d   1       2.351   1.340  -0.230  0.00  0.00     0.119 A 
ATOM     12  C2  <0> d   1       1.194   2.058  -0.004  0.00  0.00     0.019 A 
ATOM     13  C1  <0> d   1       0.005   1.378   0.226  0.00  0.00     0.005 A 
ATOM     14  C5  <0> d   1       0.024  -0.005   0.221  0.00  0.00     0.050 A 
ENDBRANCH   5   9
ENDBRANCH   1   2
BRANCH   1  15
ATOM     15  C11 <0> d   1       0.197  -6.689  -1.756  0.00  0.00    -0.014 A 
ATOM     16  C15 <0> d   1       0.330  -7.797  -0.804  0.00  0.00     0.009 A 
ATOM     17  C14 <0> d   1      -0.763  -8.657  -0.602  0.00  0.00     0.090 A 
ATOM     18  C16 <0> d   1       1.520  -8.000  -0.098  0.00  0.00     0.051 A 
ATOM     19  O2  <0> d   1      -1.910  -8.460  -1.290  0.00  0.00    -0.275 OA
ATOM     20  C19 <0> d   1      -0.651  -9.707   0.300  0.00  0.00     0.041 A 
ATOM     21  C13 <0> d   1      -2.037  -7.451  -2.165  0.00  0.00     0.288 A 
ATOM     22  C12 <0> d   1      -0.981  -6.547  -2.413  0.00  0.00     0.092 A 
ATOM     23  O1  <0> d   1      -3.089  -7.312  -2.761  0.00  0.00    -0.260 OA
ATOM     24  C18 <0> d   1       0.529  -9.905   0.985  0.00  0.00     0.039 A 
ATOM     25  C17 <0> d   1       1.612  -9.053   0.792  0.00  0.00     0.066 A 
BRANCH  25  26
ATOM     26  O3  <0> d   1       2.766  -9.257   1.482  0.00  0.00    -0.361 OA
ATOM     27  H19 <0> d   1       2.804  -8.793   2.329  0.00  0.00     0.217 HD
ENDBRANCH  25  26
ENDBRANCH   1  15
TORSDOF 4
