REMARK  4 active torsions:
REMARK  status: ('A' for Active; 'I' for Inactive)
REMARK    1  A    between atoms: O1_2  and  C2_3 
REMARK    2  A    between atoms: C5_6  and  C8_9 
REMARK    3  A    between atoms: C16_19  and  C17_20 
REMARK    4  A    between atoms: C17_20  and  N1_21 
ROOT
ATOM      1  C8  <0> d   1      -2.394   5.354   0.052  0.00  0.00     0.048 A 
ATOM      2  C9  <0> d   1      -1.163   5.926   0.043  0.00  0.00     0.159 A 
ATOM      3  O2  <0> d   1      -0.037   5.208   0.029  0.00  0.00    -0.320 OA
ATOM      4  C10 <0> d   1      -0.019   3.860   0.022  0.00  0.00     0.100 A 
ATOM      5  C11 <0> d   1      -1.223   3.135   0.030  0.00  0.00     0.050 A 
ATOM      6  C12 <0> d   1      -2.492   3.884   0.046  0.00  0.00     0.197 A 
ATOM      7  O3  <0> d   1      -3.570   3.315   0.054  0.00  0.00    -0.286 OA
ATOM      8  C13 <0> d   1      -1.206   1.739   0.017  0.00  0.00     0.021 A 
ATOM      9  C14 <0> d   1      -0.013   1.076   0.008  0.00  0.00     0.041 A 
ATOM     10  C15 <0> d   1       1.186   1.785   0.000  0.00  0.00     0.118 A 
ATOM     11  C16 <0> d   1       1.186   3.170   0.007  0.00  0.00     0.039 A 
ATOM     12  O5  <0> d   1       2.365   1.113  -0.014  0.00  0.00    -0.191 OA
ENDROOT
BRANCH   1  13
ATOM     13  C5  <0> d   1      -3.618   6.193   0.069  0.00  0.00    -0.020 A 
ATOM     14  C4  <0> d   1      -3.746   7.222   1.000  0.00  0.00     0.015 A 
ATOM     15  C3  <0> d   1      -4.885   8.001   1.012  0.00  0.00     0.037 A 
ATOM     16  C2  <0> d   1      -5.902   7.760   0.099  0.00  0.00     0.068 A 
ATOM     17  C7  <0> d   1      -5.777   6.735  -0.829  0.00  0.00     0.037 A 
ATOM     18  C6  <0> d   1      -4.639   5.957  -0.850  0.00  0.00     0.015 A 
BRANCH  16  19
ATOM     19  O1  <0> d   1      -7.022   8.529   0.114  0.00  0.00    -0.356 OA
ATOM     20  C1  <0> d   1      -8.030   8.226  -0.853  0.00  0.00     0.210 C 
ENDBRANCH  16  19
ENDBRANCH   1  13
BRANCH  11  21
ATOM     21  C17 <0> d   1       2.490   3.926  -0.003  0.00  0.00     0.281 C 
BRANCH  21  22
ATOM     22  N1  <0> d   1       2.900   4.178  -1.391  0.00  0.00    -0.046 N 
ATOM     23  C21 <0> d   1       1.962   5.090  -2.059  0.00  0.00     0.402 C 
ATOM     24  O4  <0> d   1       2.430   5.375  -3.379  0.00  0.00    -0.364 OA
ATOM     25  C20 <0> d   1       2.550   4.219  -4.213  0.00  0.00     0.171 C 
ATOM     26  C19 <0> d   1       3.518   3.228  -3.558  0.00  0.00     0.054 C 
ATOM     27  C18 <0> d   1       3.030   2.919  -2.139  0.00  0.00     0.240 C 
ATOM     28  H21 <0> d   1       3.886   4.663  -1.367  0.00  0.00     0.282 HD
ENDBRANCH  21  22
ENDBRANCH  11  21
TORSDOF 4
