REMARK  5 active torsions:
REMARK  status: ('A' for Active; 'I' for Inactive)
REMARK    1  A    between atoms: C6_6  and  O4_29 
REMARK    2  A    between atoms: C7_7  and  C18_21 
REMARK    3  A    between atoms: C10_12  and  C11_13 
REMARK    4  A    between atoms: C14_16  and  O3_19 
REMARK    5  A    between atoms: C18_21  and  N1_22 
ROOT
ATOM      1  C1  <0> d   1      -0.013   1.086   0.008  0.00  0.00     0.050 C 
ATOM      2  C2  <0> d   1      -0.718   1.572   1.248  0.00  0.00    -0.032 A 
ATOM      3  C3  <0> d   1      -2.118   1.799   1.239  0.00  0.00     0.006 A 
ATOM      4  C4  <0> d   1      -2.864   1.560   0.074  0.00  0.00     0.017 A 
ATOM      5  C5  <0> d   1      -4.211   1.775   0.072  0.00  0.00     0.038 A 
ATOM      6  C6  <0> d   1      -4.855   2.225   1.223  0.00  0.00     0.076 A 
ATOM      7  C7  <0> d   1      -4.137   2.460   2.384  0.00  0.00     0.038 A 
ATOM      8  C8  <0> d   1      -2.765   2.247   2.405  0.00  0.00     0.101 A 
ATOM      9  O1  <0> d   1      -2.065   2.477   3.537  0.00  0.00    -0.273 OA
ATOM     10  C9  <0> d   1      -0.737   2.279   3.586  0.00  0.00     0.300 A 
ATOM     11  O2  <0> d   1      -0.129   2.493   4.619  0.00  0.00    -0.259 OA
ATOM     12  C10 <0> d   1      -0.018   1.807   2.400  0.00  0.00     0.057 A 
ENDROOT
BRANCH   7  13
ATOM     13  C18 <0> d   1      -4.843   2.948   3.622  0.00  0.00     0.317 C 
BRANCH  13  14
ATOM     14  N1  <0> d   1      -4.864   4.416   3.629  0.00  0.00     0.096 N 
ATOM     15  C22 <0> d   1      -5.743   4.926   4.690  0.00  0.00     0.303 C 
ATOM     16  C21 <0> d   1      -5.799   6.454   4.612  0.00  0.00     0.302 C 
ATOM     17  N2  <0> d   1      -4.441   6.998   4.751  0.00  0.00     0.087 N 
ATOM     18  C20 <0> d   1      -3.561   6.489   3.690  0.00  0.00     0.302 C 
ATOM     19  C23 <0> d   1      -4.461   8.467   4.758  0.00  0.00     0.310 C 
ATOM     20  C19 <0> d   1      -3.506   4.961   3.768  0.00  0.00     0.303 C 
ENDBRANCH  13  14
ENDBRANCH   7  13
BRANCH   6  21
ATOM     21  O4  <0> d   1      -6.196   2.434   1.207  0.00  0.00    -0.360 OA
ATOM     22  H26 <0> d   1      -6.709   2.789   2.113  0.00  0.00     0.217 HD
ENDBRANCH   6  21
BRANCH  12  23
ATOM     23  C11 <0> d   1       1.447   1.588   2.447  0.00  0.00    -0.019 A 
ATOM     24  C16 <0> d   1       2.309   2.666   2.646  0.00  0.00     0.015 A 
ATOM     25  C15 <0> d   1       3.672   2.458   2.690  0.00  0.00     0.037 A 
ATOM     26  C14 <0> d   1       4.186   1.178   2.536  0.00  0.00     0.068 A 
ATOM     27  C13 <0> d   1       3.330   0.102   2.338  0.00  0.00     0.037 A 
ATOM     28  C12 <0> d   1       1.967   0.302   2.298  0.00  0.00     0.015 A 
BRANCH  26  29
ATOM     29  O3  <0> d   1       5.529   0.977   2.581  0.00  0.00    -0.356 OA
ATOM     30  C17 <0> d   1       5.990  -0.366   2.415  0.00  0.00     0.210 C 
ENDBRANCH  26  29
ENDBRANCH  12  23
TORSDOF 5
