REMARK  6 active torsions:
REMARK  status: ('A' for Active; 'I' for Inactive)
REMARK    1  A    between atoms: C5_5  and  C20_25 
REMARK    2  A    between atoms: C10_11  and  C11_12 
REMARK    3  A    between atoms: C13_14  and  O4_22 
REMARK    4  A    between atoms: C14_15  and  O3_20 
REMARK    5  A    between atoms: C15_16  and  O2_18 
REMARK    6  A    between atoms: C20_25  and  N1_26 
ROOT
ATOM      1  C1  <0> d   1       3.535   3.150   2.469  0.00  0.00     0.049 C 
ATOM      2  C2  <0> d   1       2.812   3.032   1.152  0.00  0.00    -0.042 A 
ATOM      3  C3  <0> d   1       1.472   2.763   1.129  0.00  0.00     0.048 A 
ATOM      4  C4  <0> d   1       0.803   2.648  -0.086  0.00  0.00     0.118 A 
ATOM      5  C5  <0> d   1       1.481   2.816  -1.283  0.00  0.00     0.041 A 
ATOM      6  C6  <0> d   1       2.841   3.097  -1.277  0.00  0.00     0.102 A 
ATOM      7  C7  <0> d   1       3.507   3.204  -0.045  0.00  0.00     0.057 A 
ATOM      8  C8  <0> d   1       4.916   3.502  -0.359  0.00  0.00     0.219 A 
ATOM      9  O1  <0> d   1       5.835   3.672   0.424  0.00  0.00    -0.284 OA
ATOM     10  C9  <0> d   1       4.965   3.547  -1.827  0.00  0.00     0.128 A 
ATOM     11  C10 <0> d   1       6.065   3.791  -2.586  0.00  0.00     0.053 C 
ATOM     12  O5  <0> d   1       3.716   3.301  -2.286  0.00  0.00    -0.305 OA
ATOM     13  O7  <0> d   1      -0.526   2.374  -0.098  0.00  0.00    -0.191 OA
ENDROOT
BRANCH  11  14
ATOM     14  C11 <0> d   1       5.995   3.651  -4.045  0.00  0.00    -0.028 A 
ATOM     15  C16 <0> d   1       7.080   4.042  -4.841  0.00  0.00     0.051 A 
ATOM     16  C15 <0> d   1       7.010   3.908  -6.214  0.00  0.00     0.105 A 
ATOM     17  C14 <0> d   1       5.864   3.385  -6.808  0.00  0.00     0.135 A 
ATOM     18  C13 <0> d   1       4.783   2.994  -6.020  0.00  0.00     0.105 A 
ATOM     19  C12 <0> d   1       4.847   3.119  -4.646  0.00  0.00     0.051 A 
BRANCH  16  20
ATOM     20  O2  <0> d   1       8.063   4.287  -6.987  0.00  0.00    -0.353 OA
ATOM     21  C17 <0> d   1       9.206   4.816  -6.312  0.00  0.00     0.210 C 
ENDBRANCH  16  20
BRANCH  17  22
ATOM     22  O3  <0> d   1       5.800   3.254  -8.159  0.00  0.00    -0.351 OA
ATOM     23  C18 <0> d   1       6.258   2.020  -8.714  0.00  0.00     0.210 C 
ENDBRANCH  17  22
BRANCH  18  24
ATOM     24  O4  <0> d   1       3.666   2.484  -6.604  0.00  0.00    -0.353 OA
ATOM     25  C19 <0> d   1       2.596   2.105  -5.737  0.00  0.00     0.210 C 
ENDBRANCH  18  24
ENDBRANCH  11  14
BRANCH   5  26
ATOM     26  C20 <0> d   1       0.742   2.696  -2.591  0.00  0.00     0.317 C 
BRANCH  26  27
ATOM     27  N1  <0> d   1       0.223   4.013  -2.983  0.00  0.00     0.097 N 
ATOM     28  C24 <0> d   1      -0.295   3.987  -4.358  0.00  0.00     0.299 C 
ATOM     29  C23 <0> d   1      -0.770   5.390  -4.746  0.00  0.00     0.198 C 
ATOM     30  O6  <0> d   1      -1.753   5.832  -3.805  0.00  0.00    -0.388 OA
ATOM     31  C22 <0> d   1      -1.282   5.870  -2.456  0.00  0.00     0.198 C 
ATOM     32  C21 <0> d   1      -0.812   4.472  -2.045  0.00  0.00     0.299 C 
ENDBRANCH  26  27
ENDBRANCH   5  26
TORSDOF 6
