REMARK  8 active torsions:
REMARK  status: ('A' for Active; 'I' for Inactive)
REMARK    1  A    between atoms: C3_3  and  C13_21 
REMARK    2  A    between atoms: C4_4  and  C5_8 
REMARK    3  A    between atoms: C8_11  and  O2_15 
REMARK    4  A    between atoms: C10_13  and  O1_14 
REMARK    5  A    between atoms: O2_15  and  C11_16 
REMARK    6  A    between atoms: C11_16  and  C12_17 
REMARK       I    between atoms: C12_17  and  N3_19 
REMARK    7  A    between atoms: N3_19  and  N4_20 
REMARK    8  A    between atoms: C16_24  and  O4_27 
ROOT
ATOM      1  C5  <0> d   1       0.338  -3.334  -1.514  0.00  0.00     0.029 A 
ATOM      2  C6  <0> d   1       1.302  -3.335  -2.521  0.00  0.00     0.019 A 
ATOM      3  C7  <0> d   1       1.465  -4.448  -3.318  0.00  0.00     0.038 A 
ATOM      4  C8  <0> d   1       0.670  -5.570  -3.122  0.00  0.00     0.072 A 
ATOM      5  C9  <0> d   1      -0.292  -5.577  -2.123  0.00  0.00     0.074 A 
ATOM      6  C10 <0> d   1      -0.459  -4.466  -1.314  0.00  0.00     0.081 A 
ENDROOT
BRANCH   1   7
ATOM      7  C4  <0> d   1       0.161  -2.139  -0.655  0.00  0.00     0.103 A 
ATOM      8  C3  <0> d   1       0.060  -0.797  -1.102  0.00  0.00     0.029 A 
ATOM      9  C2  <0> d   1      -0.093  -0.009  -0.001  0.00  0.00     0.037 A 
ATOM     10  C1  <0> d   1      -0.241   1.490   0.004  0.00  0.00     0.070 C 
ATOM     11  N2  <0> d   1      -0.084  -0.810   1.085  0.00  0.00    -0.281 N 
ATOM     12  N1  <0> d   1       0.070  -2.134   0.657  0.00  0.00    -0.173 NA
ATOM     13  H1  <0> d   1      -0.171  -0.519   2.006  0.00  0.00     0.189 HD
BRANCH   8  14
ATOM     14  C13 <0> d   1       0.112  -0.335  -2.511  0.00  0.00    -0.021 A 
ATOM     15  C18 <0> d   1       1.181   0.443  -2.952  0.00  0.00     0.015 A 
ATOM     16  C17 <0> d   1       1.230   0.866  -4.264  0.00  0.00     0.037 A 
ATOM     17  C16 <0> d   1       0.209   0.528  -5.142  0.00  0.00     0.068 A 
ATOM     18  C15 <0> d   1      -0.860  -0.242  -4.704  0.00  0.00     0.037 A 
ATOM     19  C14 <0> d   1      -0.911  -0.673  -3.394  0.00  0.00     0.015 A 
BRANCH  17  20
ATOM     20  O4  <0> d   1       0.256   0.951  -6.432  0.00  0.00    -0.356 OA
ATOM     21  C19 <0> d   1       1.385   1.739  -6.816  0.00  0.00     0.210 C 
ENDBRANCH  17  20
ENDBRANCH   8  14
ENDBRANCH   1   7
BRANCH   6  22
ATOM     22  O1  <0> d   1      -1.396  -4.473  -0.331  0.00  0.00    -0.360 OA
ATOM     23  H8  <0> d   1      -2.265  -4.156  -0.613  0.00  0.00     0.217 HD
ENDBRANCH   6  22
BRANCH   4  24
ATOM     24  O2  <0> d   1       0.835  -6.664  -3.911  0.00  0.00    -0.342 OA
BRANCH  24  25
ATOM     25  C11 <0> d   1       1.843  -6.589  -4.920  0.00  0.00     0.279 C 
BRANCH  25  26
ATOM     26  C12 <0> d   1       1.881  -7.884  -5.690  0.00  0.00     0.255 C 
ATOM     27  O3  <0> d   1       1.119  -8.783  -5.402  0.00  0.00    -0.270 OA
ATOM     28  N3  <0> d   1       2.761  -8.044  -6.698  0.00  0.00    -0.292 N 
ATOM     29  H11 <0> d   1       3.370  -7.325  -6.928  0.00  0.00     0.183 HD
BRANCH  28  30
ATOM     30  N4  <0> d   1       2.795  -9.218  -7.396  0.00  0.00    -0.247 NA
ATOM     31  H12 <0> d   1       3.500  -9.191  -8.116  0.00  0.00     0.143 HD
ATOM     32  H13 <0> d   1       2.940 -10.002  -6.777  0.00  0.00     0.143 HD
ENDBRANCH  28  30
ENDBRANCH  25  26
ENDBRANCH  24  25
ENDBRANCH   4  24
TORSDOF 8
