REMARK  6 active torsions:
REMARK  status: ('A' for Active; 'I' for Inactive)
REMARK    1  A    between atoms: C2_2  and  O1_3 
REMARK    2  A    between atoms: O1_3  and  C3_4 
REMARK    3  A    between atoms: C6_7  and  C9_10 
REMARK    4  A    between atoms: C15_17  and  O5_36 
REMARK    5  A    between atoms: C16_18  and  C18_21 
REMARK    6  A    between atoms: C18_21  and  N1_22 
ROOT
ATOM      1  C9  <0> d   1       4.528   4.670  -4.170  0.00  0.00     0.053 C 
ATOM      2  C10 <0> d   1       4.429   4.620  -2.817  0.00  0.00     0.127 A 
ATOM      3  C11 <0> d   1       5.473   5.002  -1.855  0.00  0.00     0.218 A 
ATOM      4  O2  <0> d   1       6.590   5.426  -2.096  0.00  0.00    -0.284 OA
ATOM      5  C12 <0> d   1       4.866   4.760  -0.534  0.00  0.00     0.051 A 
ATOM      6  C13 <0> d   1       5.328   4.919   0.773  0.00  0.00     0.021 A 
ATOM      7  C14 <0> d   1       4.517   4.602   1.825  0.00  0.00     0.038 A 
ATOM      8  C15 <0> d   1       3.229   4.126   1.597  0.00  0.00     0.076 A 
ATOM      9  C16 <0> d   1       2.759   3.957   0.305  0.00  0.00     0.038 A 
ATOM     10  C17 <0> d   1       3.571   4.274  -0.777  0.00  0.00     0.101 A 
ATOM     11  O3  <0> d   1       3.352   4.206  -2.108  0.00  0.00    -0.305 OA
ENDROOT
BRANCH   9  12
ATOM     12  C18 <0> d   1       1.364   3.435   0.073  0.00  0.00     0.316 C 
BRANCH  12  13
ATOM     13  N1  <0> d   1       1.399   1.969  -0.017  0.00  0.00     0.093 N 
ATOM     14  C23 <0> d   1       2.143   1.531  -1.207  0.00  0.00     0.283 C 
ATOM     15  C22 <0> d   1       2.287   0.002  -1.143  0.00  0.00     0.065 C 
ATOM     16  C21 <0> d   1       0.884  -0.610  -1.239  0.00  0.00     0.020 C 
ATOM     17  C24 <0> d   1       2.887  -0.343   0.201  0.00  0.00     0.020 C 
ATOM     18  C20 <0> d   1       0.078  -0.111  -0.037  0.00  0.00     0.033 C 
ATOM     19  C19 <0> d   1       0.043   1.410  -0.005  0.00  0.00     0.279 C 
ATOM     20  C29 <0> d   1       0.664  -0.689   1.240  0.00  0.00     0.138 C 
ATOM     21  N2  <0> d   1       2.120  -0.555   1.296  0.00  0.00    -0.317 N 
ATOM     22  C28 <0> d   1       2.704  -0.709   2.510  0.00  0.00     0.247 C 
ATOM     23  C27 <0> d   1       4.098  -0.812   2.624  0.00  0.00     0.074 C 
ATOM     24  O4  <0> d   1       2.010  -0.758   3.513  0.00  0.00    -0.268 OA
ATOM     25  C26 <0> d   1       4.867  -0.685   1.505  0.00  0.00     0.007 C 
ATOM     26  C25 <0> d   1       4.241  -0.434   0.279  0.00  0.00     0.026 C 
ENDBRANCH  12  13
ENDBRANCH   9  12
BRANCH   8  27
ATOM     27  O5  <0> d   1       2.428   3.819   2.649  0.00  0.00    -0.360 OA
ATOM     28  H28 <0> d   1       1.410   3.442   2.474  0.00  0.00     0.217 HD
ENDBRANCH   8  27
BRANCH   1  29
ATOM     29  C6  <0> d   1       3.439   4.148  -5.005  0.00  0.00    -0.033 A 
ATOM     30  C5  <0> d   1       2.245   3.716  -4.414  0.00  0.00     0.014 A 
ATOM     31  C4  <0> d   1       1.228   3.227  -5.202  0.00  0.00     0.037 A 
ATOM     32  C3  <0> d   1       1.384   3.162  -6.582  0.00  0.00     0.068 A 
ATOM     33  C8  <0> d   1       2.567   3.590  -7.174  0.00  0.00     0.037 A 
ATOM     34  C7  <0> d   1       3.589   4.086  -6.397  0.00  0.00     0.014 A 
BRANCH  32  35
ATOM     35  O1  <0> d   1       0.378   2.679  -7.355  0.00  0.00    -0.352 OA
BRANCH  35  36
ATOM     36  C2  <0> d   1       0.604   2.639  -8.765  0.00  0.00     0.171 C 
ATOM     37  C1  <0> d   1      -0.632   2.069  -9.464  0.00  0.00     0.034 C 
ENDBRANCH  35  36
ENDBRANCH  32  35
ENDBRANCH   1  29
TORSDOF 6
