REMARK  3 active torsions:
REMARK  status: ('A' for Active; 'I' for Inactive)
REMARK    1  A    between atoms: C2_2  and  N1_3 
REMARK    2  A    between atoms: N2_6  and  C7_9 
REMARK    3  A    between atoms: C7_9  and  C8_10 
ROOT
ATOM      1  C8  <0> d   1      -1.263   5.086  -2.464  0.00  0.00    -0.014 A 
ATOM      2  C9  <0> d   1      -2.264   5.923  -2.091  0.00  0.00     0.092 A 
ATOM      3  C10 <0> d   1      -2.067   7.320  -2.146  0.00  0.00     0.288 A 
ATOM      4  O1  <0> d   1      -2.972   8.060  -1.804  0.00  0.00    -0.260 OA
ATOM      5  O2  <0> d   1      -0.910   7.853  -2.567  0.00  0.00    -0.275 OA
ATOM      6  C11 <0> d   1       0.124   7.076  -2.957  0.00  0.00     0.090 A 
ATOM      7  C12 <0> d   1      -0.002   5.676  -2.925  0.00  0.00     0.008 A 
ATOM      8  C13 <0> d   1       1.065   4.870  -3.329  0.00  0.00     0.039 A 
ATOM      9  C14 <0> d   1       2.237   5.455  -3.757  0.00  0.00     0.041 A 
ATOM     10  C15 <0> d   1       2.359   6.838  -3.789  0.00  0.00    -0.038 A 
ATOM     11  C16 <0> d   1       1.313   7.645  -3.393  0.00  0.00     0.046 A 
ATOM     12  C17 <0> d   1       3.647   7.463  -4.260  0.00  0.00     0.050 C 
ATOM     13 Cl1  <0> d   1       3.567   4.459  -4.261  0.00  0.00    -0.084 Cl
ENDROOT
BRANCH   1  14
ATOM     14  C7  <0> d   1      -1.445   3.591  -2.413  0.00  0.00     0.274 C 
BRANCH  14  15
ATOM     15  N2  <0> d   1      -0.806   3.062  -1.200  0.00  0.00    -0.064 N 
ATOM     16  C4  <0> d   1      -0.754   1.593  -1.231  0.00  0.00     0.265 C 
ATOM     17  C3  <0> d   1      -0.013   1.086   0.008  0.00  0.00     0.300 C 
ATOM     18  N1  <0> d   1      -0.701   1.560   1.216  0.00  0.00     0.091 N 
ATOM     19  C6  <0> d   1      -0.754   3.029   1.247  0.00  0.00     0.300 C 
ATOM     20  C5  <0> d   1      -1.495   3.536   0.008  0.00  0.00     0.265 C 
ATOM     21  H22 <0> d   1       0.227   3.438  -1.172  0.00  0.00     0.280 HD
BRANCH  18  22
ATOM     22  C2  <0> d   1      -0.062   1.031   2.429  0.00  0.00     0.268 C 
ATOM     23  C1  <0> d   1      -0.640   1.734   3.658  0.00  0.00     0.037 C 
ENDBRANCH  18  22
ENDBRANCH  14  15
ENDBRANCH   1  14
TORSDOF 3
