REMARK  8 active torsions:
REMARK  status: ('A' for Active; 'I' for Inactive)
REMARK    1  A    between atoms: C2_2  and  C3_3 
REMARK    2  A    between atoms: C3_3  and  C4_4 
REMARK    3  A    between atoms: C4_4  and  N1_5 
REMARK    4  A    between atoms: N1_5  and  C6_7 
REMARK    5  A    between atoms: C6_7  and  C7_8 
REMARK    6  A    between atoms: C8_9  and  O4_31 
REMARK    7  A    between atoms: C14_16  and  C15_17 
REMARK    8  A    between atoms: C20_23  and  O2_26 
ROOT
ATOM      1  C7  <0> d   1       6.769  -5.196  -0.087  0.00  0.00     0.035 A 
ATOM      2  C8  <0> d   1       8.045  -5.737  -0.102  0.00  0.00     0.076 A 
ATOM      3  C9  <0> d   1       9.165  -4.910  -0.108  0.00  0.00     0.038 A 
ATOM      4  C10 <0> d   1       9.016  -3.551  -0.100  0.00  0.00     0.021 A 
ATOM      5  C11 <0> d   1       7.738  -2.993  -0.085  0.00  0.00     0.051 A 
ATOM      6  C12 <0> d   1       6.602  -3.818  -0.079  0.00  0.00     0.101 A 
ATOM      7  O1  <0> d   1       5.499  -3.040  -0.059  0.00  0.00    -0.305 OA
ATOM      8  C13 <0> d   1       5.821  -1.725  -0.061  0.00  0.00     0.128 A 
ATOM      9  C14 <0> d   1       4.937  -0.688  -0.048  0.00  0.00     0.055 C 
ATOM     10  C25 <0> d   1       7.236  -1.607  -0.074  0.00  0.00     0.218 A 
ATOM     11  O3  <0> d   1       7.895  -0.580  -0.074  0.00  0.00    -0.284 OA
ENDROOT
BRANCH   9  12
ATOM     12  C15 <0> d   1       3.500  -0.954  -0.035  0.00  0.00    -0.005 A 
ATOM     13  C18 <0> d   1       2.415   0.046  -0.020  0.00  0.00     0.005 A 
ATOM     14  C17 <0> d   1       1.216  -0.684  -0.013  0.00  0.00     0.045 A 
ATOM     15  C19 <0> d   1       2.387   1.438  -0.013  0.00  0.00     0.051 A 
ATOM     16  N2  <0> d   1       1.542  -2.026  -0.022  0.00  0.00    -0.360 N 
ATOM     17  C22 <0> d   1       0.002  -0.004   0.002  0.00  0.00     0.033 A 
ATOM     18  C16 <0> d   1       2.887  -2.189  -0.036  0.00  0.00     0.103 A 
ATOM     19  C24 <0> d   1       0.569  -3.122  -0.019  0.00  0.00     0.156 C 
ATOM     20  C21 <0> d   1      -0.017   1.373   0.010  0.00  0.00     0.039 A 
ATOM     21  C20 <0> d   1       1.171   2.097   0.002  0.00  0.00     0.069 A 
BRANCH  21  22
ATOM     22  O2  <0> d   1       1.137   3.457   0.010  0.00  0.00    -0.356 OA
ATOM     23  C23 <0> d   1      -0.152   4.073   0.025  0.00  0.00     0.210 C 
ENDBRANCH  21  22
ENDBRANCH   9  12
BRANCH   1  24
ATOM     24  C6  <0> d   1       5.566  -6.103  -0.081  0.00  0.00     0.278 C 
BRANCH  24  25
ATOM     25  N1  <0> d   1       5.162  -6.390  -1.464  0.00  0.00    -0.071 N 
ATOM     26  C5  <0> d   1       6.189  -7.178  -2.159  0.00  0.00     0.270 C 
ATOM     27  H28 <0> d   1       5.057  -5.431  -1.992  0.00  0.00     0.279 HD
BRANCH  25  28
ATOM     28  C4  <0> d   1       3.861  -7.071  -1.502  0.00  0.00     0.234 C 
BRANCH  28  29
ATOM     29  C3  <0> d   1       3.359  -7.131  -2.946  0.00  0.00     0.027 C 
BRANCH  29  30
ATOM     30  C2  <0> d   1       2.003  -7.840  -2.986  0.00  0.00    -0.003 C 
ATOM     31  C1  <0> d   1       1.501  -7.900  -4.429  0.00  0.00     0.005 C 
ENDBRANCH  29  30
ENDBRANCH  28  29
ENDBRANCH  25  28
ENDBRANCH  24  25
ENDBRANCH   1  24
BRANCH   2  32
ATOM     32  O4  <0> d   1       8.205  -7.085  -0.110  0.00  0.00    -0.360 OA
ATOM     33  H29 <0> d   1       9.215  -7.519  -0.122  0.00  0.00     0.217 HD
ENDBRANCH   2  32
TORSDOF 8
