REMARK  5 active torsions:
REMARK  status: ('A' for Active; 'I' for Inactive)
REMARK    1  A    between atoms: C6_7  and  C11_14 
REMARK    2  A    between atoms: C11_14  and  N1_15 
REMARK    3  A    between atoms: N2_18  and  C16_21 
REMARK    4  A    between atoms: C16_21  and  C17_22 
REMARK    5  A    between atoms: C17_22  and  O4_23 
ROOT
ATOM      1  C1  <0> d   1      -3.107  -5.509   2.862  0.00  0.00     0.048 C 
ATOM      2  C2  <0> d   1      -1.995  -4.774   2.159  0.00  0.00    -0.056 A 
ATOM      3  C3  <0> d   1      -0.731  -5.326   2.143  0.00  0.00     0.062 A 
ATOM      4  C4  <0> d   1       0.317  -4.661   1.498  0.00  0.00     0.186 A 
ATOM      5  O1  <0> d   1       1.444  -5.141   1.476  0.00  0.00    -0.287 OA
ATOM      6  C5  <0> d   1       0.038  -3.381   0.849  0.00  0.00     0.056 A 
ATOM      7  C6  <0> d   1       1.046  -2.665   0.184  0.00  0.00    -0.008 A 
ATOM      8  C7  <0> d   1       0.716  -1.460  -0.410  0.00  0.00     0.077 A 
ATOM      9  C8  <0> d   1      -0.585  -0.990  -0.338  0.00  0.00     0.221 A 
ATOM     10  O2  <0> d   1      -1.541  -1.677   0.297  0.00  0.00    -0.285 OA
ATOM     11  C9  <0> d   1      -1.272  -2.857   0.893  0.00  0.00     0.093 A 
ATOM     12  C10 <0> d   1      -2.267  -3.564   1.548  0.00  0.00     0.045 A 
ATOM     13  O3  <0> d   1      -0.895   0.185  -0.921  0.00  0.00    -0.164 OA
ENDROOT
BRANCH   7  14
ATOM     14  C11 <0> d   1       2.455  -3.197   0.119  0.00  0.00     0.312 C 
BRANCH  14  15
ATOM     15  N1  <0> d   1       3.103  -3.029   1.427  0.00  0.00     0.096 N 
ATOM     16  C15 <0> d   1       4.317  -3.852   1.522  0.00  0.00     0.303 C 
ATOM     17  C14 <0> d   1       4.916  -3.711   2.923  0.00  0.00     0.302 C 
ATOM     18  N2  <0> d   1       5.220  -2.297   3.183  0.00  0.00     0.093 N 
ATOM     19  C13 <0> d   1       4.006  -1.474   3.087  0.00  0.00     0.302 C 
ATOM     20  C12 <0> d   1       3.406  -1.615   1.686  0.00  0.00     0.303 C 
BRANCH  18  21
ATOM     21  C16 <0> d   1       5.868  -2.129   4.491  0.00  0.00     0.298 C 
BRANCH  21  22
ATOM     22  C17 <0> d   1       7.326  -2.582   4.399  0.00  0.00     0.194 C 
BRANCH  22  23
ATOM     23  O4  <0> d   1       8.037  -1.722   3.507  0.00  0.00    -0.399 OA
ATOM     24  H21 <0> d   1       9.107  -1.893   3.314  0.00  0.00     0.209 HD
ENDBRANCH  22  23
ENDBRANCH  21  22
ENDBRANCH  18  21
ENDBRANCH  14  15
ENDBRANCH   7  14
TORSDOF 5
