REMARK  7 active torsions:
REMARK  status: ('A' for Active; 'I' for Inactive)
REMARK    1  A    between atoms: O1_2  and  C2_3 
REMARK    2  A    between atoms: C4_5  and  C10_13 
REMARK    3  A    between atoms: C6_7  and  O3_11 
REMARK    4  A    between atoms: C7_8  and  O2_9 
REMARK    5  A    between atoms: N1_25  and  C21_28 
REMARK    6  A    between atoms: C21_28  and  C22_29 
REMARK    7  A    between atoms: C22_29  and  N2_30 
ROOT
ATOM      1  C10 <0> d   1      -4.851   0.226   0.038  0.00  0.00     0.053 C 
ATOM      2  C11 <0> d   1      -6.050  -0.406  -0.056  0.00  0.00     0.127 A 
ATOM      3  C12 <0> d   1      -7.365   0.240  -0.168  0.00  0.00     0.218 A 
ATOM      4  O4  <0> d   1      -7.611   1.433  -0.195  0.00  0.00    -0.284 OA
ATOM      5  C13 <0> d   1      -8.321  -0.880  -0.240  0.00  0.00     0.051 A 
ATOM      6  C14 <0> d   1      -9.710  -0.945  -0.355  0.00  0.00     0.021 A 
ATOM      7  C15 <0> d   1     -10.333  -2.158  -0.399  0.00  0.00     0.038 A 
ATOM      8  C16 <0> d   1      -9.588  -3.336  -0.331  0.00  0.00     0.082 A 
ATOM      9  C17 <0> d   1      -8.209  -3.286  -0.219  0.00  0.00     0.038 A 
ATOM     10  C18 <0> d   1      -7.559  -2.057  -0.171  0.00  0.00     0.101 A 
ATOM     11  O5  <0> d   1      -6.249  -1.745  -0.070  0.00  0.00    -0.305 OA
ATOM     12  C19 <0> d   1      -7.392  -4.551  -0.153  0.00  0.00     0.319 C 
ATOM     13  N1  <0> d   1      -8.263  -5.683   0.192  0.00  0.00     0.117 N 
ATOM     14  C20 <0> d   1      -9.455  -5.687  -0.672  0.00  0.00     0.447 C 
ATOM     15  O6  <0> d   1     -10.238  -4.529  -0.374  0.00  0.00    -0.321 OA
ENDROOT
BRANCH   1  16
ATOM     16  C4  <0> d   1      -3.608  -0.554   0.022  0.00  0.00    -0.028 A 
ATOM     17  C3  <0> d   1      -2.370   0.100  -0.011  0.00  0.00     0.051 A 
ATOM     18  C2  <0> d   1      -1.201  -0.637  -0.025  0.00  0.00     0.105 A 
ATOM     19  C7  <0> d   1      -1.254  -2.029  -0.014  0.00  0.00     0.135 A 
ATOM     20  C6  <0> d   1      -2.483  -2.683   0.024  0.00  0.00     0.105 A 
ATOM     21  C5  <0> d   1      -3.656  -1.953   0.039  0.00  0.00     0.051 A 
BRANCH  18  22
ATOM     22  O1  <0> d   1       0.001  -0.002  -0.057  0.00  0.00    -0.353 OA
ATOM     23  C1  <0> d   1      -0.019   1.426  -0.067  0.00  0.00     0.210 C 
ENDBRANCH  18  22
BRANCH  19  24
ATOM     24  O2  <0> d   1      -0.102  -2.750  -0.035  0.00  0.00    -0.351 OA
ATOM     25  C8  <0> d   1       0.477  -3.085   1.228  0.00  0.00     0.210 C 
ENDBRANCH  19  24
BRANCH  20  26
ATOM     26  O3  <0> d   1      -2.528  -4.042   0.041  0.00  0.00    -0.353 OA
ATOM     27  C9  <0> d   1      -3.822  -4.647   0.074  0.00  0.00     0.210 C 
ENDBRANCH  20  26
ENDBRANCH   1  16
BRANCH  13  28
ATOM     28  C21 <0> d   1      -7.537  -6.955   0.093  0.00  0.00     0.305 C 
BRANCH  28  29
ATOM     29  C22 <0> d   1      -8.387  -8.077   0.693  0.00  0.00     0.302 C 
BRANCH  29  30
ATOM     30  N2  <0> d   1      -7.661  -9.350   0.594  0.00  0.00     0.094 N 
ATOM     31  C26 <0> d   1      -8.336 -10.403   1.366  0.00  0.00     0.298 C 
ATOM     32  C25 <0> d   1      -7.515 -11.693   1.284  0.00  0.00     0.198 C 
ATOM     33  O7  <0> d   1      -7.341 -12.055  -0.089  0.00  0.00    -0.388 OA
ATOM     34  C24 <0> d   1      -6.686 -11.052  -0.870  0.00  0.00     0.198 C 
ATOM     35  C23 <0> d   1      -7.498  -9.755  -0.810  0.00  0.00     0.298 C 
ENDBRANCH  29  30
ENDBRANCH  28  29
ENDBRANCH  13  28
TORSDOF 7
