REMARK  5 active torsions:
REMARK  status: ('A' for Active; 'I' for Inactive)
REMARK    1  A    between atoms: N1_5  and  C7_8 
REMARK    2  A    between atoms: C7_8  and  C8_9 
REMARK    3  A    between atoms: C9_10  and  O4_32 
REMARK    4  A    between atoms: C15_17  and  C16_18 
REMARK    5  A    between atoms: C21_24  and  O2_27 
ROOT
ATOM      1  C8  <0> d   1       1.201   1.702  -4.875  0.00  0.00     0.036 A 
ATOM      2  C9  <0> d   1       0.370   0.724  -5.397  0.00  0.00     0.076 A 
ATOM      3  C10 <0> d   1      -0.461   1.005  -6.478  0.00  0.00     0.038 A 
ATOM      4  C11 <0> d   1      -0.459   2.249  -7.042  0.00  0.00     0.021 A 
ATOM      5  C12 <0> d   1       0.376   3.242  -6.530  0.00  0.00     0.051 A 
ATOM      6  C13 <0> d   1       1.215   2.971  -5.437  0.00  0.00     0.101 A 
ATOM      7  O1  <0> d   1       1.914   4.087  -5.138  0.00  0.00    -0.305 OA
ATOM      8  C14 <0> d   1       1.596   5.107  -5.970  0.00  0.00     0.128 A 
ATOM      9  C15 <0> d   1       2.127   6.362  -5.929  0.00  0.00     0.055 C 
ATOM     10  C26 <0> d   1       0.618   4.650  -6.892  0.00  0.00     0.218 A 
ATOM     11  O3  <0> d   1       0.092   5.286  -7.790  0.00  0.00    -0.284 OA
ENDROOT
BRANCH   9  12
ATOM     12  C16 <0> d   1       3.131   6.699  -4.922  0.00  0.00    -0.005 A 
ATOM     13  C19 <0> d   1       3.802   8.001  -4.742  0.00  0.00     0.005 A 
ATOM     14  C18 <0> d   1       4.676   7.838  -3.656  0.00  0.00     0.045 A 
ATOM     15  C20 <0> d   1       3.719   9.226  -5.396  0.00  0.00     0.051 A 
ATOM     16  N2  <0> d   1       4.550   6.538  -3.206  0.00  0.00    -0.360 N 
ATOM     17  C23 <0> d   1       5.458   8.912  -3.241  0.00  0.00     0.033 A 
ATOM     18  C17 <0> d   1       3.636   5.865  -3.947  0.00  0.00     0.103 A 
ATOM     19  C25 <0> d   1       5.296   5.967  -2.082  0.00  0.00     0.156 C 
ATOM     20  C22 <0> d   1       5.371  10.121  -3.896  0.00  0.00     0.039 A 
ATOM     21  C21 <0> d   1       4.504  10.283  -4.972  0.00  0.00     0.069 A 
BRANCH  21  22
ATOM     22  O2  <0> d   1       4.429  11.482  -5.608  0.00  0.00    -0.356 OA
ATOM     23  C24 <0> d   1       5.267  12.530  -5.117  0.00  0.00     0.210 C 
ENDBRANCH  21  22
ENDBRANCH   9  12
BRANCH   1  24
ATOM     24  C7  <0> d   1       2.093   1.387  -3.701  0.00  0.00     0.279 C 
BRANCH  24  25
ATOM     25  N1  <0> d   1       1.379   1.681  -2.451  0.00  0.00    -0.067 N 
ATOM     26  C4  <0> d   1       0.012   1.147  -2.488  0.00  0.00     0.235 C 
ATOM     27  C3  <0> d   1      -0.746   1.595  -1.236  0.00  0.00     0.032 C 
ATOM     28  C2  <0> d   1      -0.013   1.086   0.008  0.00  0.00    -0.015 C 
ATOM     29  C1  <0> d   1      -0.731   1.581   1.265  0.00  0.00     0.010 C 
ATOM     30  C6  <0> d   1       1.423   1.617  -0.003  0.00  0.00     0.032 C 
ATOM     31  C5  <0> d   1       2.118   1.169  -1.290  0.00  0.00     0.235 C 
ATOM     32  H28 <0> d   1       1.309   2.774  -2.349  0.00  0.00     0.280 HD
ENDBRANCH  24  25
ENDBRANCH   1  24
BRANCH   2  33
ATOM     33  O4  <0> d   1       0.364  -0.517  -4.848  0.00  0.00    -0.360 OA
ATOM     34  H29 <0> d   1      -0.294  -1.297  -5.259  0.00  0.00     0.217 HD
ENDBRANCH   2  33
TORSDOF 5
