REMARK  8 active torsions:
REMARK  status: ('A' for Active; 'I' for Inactive)
REMARK    1  A    between atoms: C5_5  and  C19_23 
REMARK    2  A    between atoms: C10_11  and  C11_12 
REMARK    3  A    between atoms: C14_15  and  O3_20 
REMARK    4  A    between atoms: C15_16  and  O2_18 
REMARK    5  A    between atoms: C19_23  and  N1_24 
REMARK    6  A    between atoms: N2_27  and  C24_30 
REMARK    7  A    between atoms: C24_30  and  C25_31 
REMARK    8  A    between atoms: C25_31  and  O5_32 
ROOT
ATOM      1  C1  <0> d   1       2.665   1.054  -1.393  0.00  0.00     0.049 C 
ATOM      2  C2  <0> d   1       1.413   1.857  -1.150  0.00  0.00    -0.042 A 
ATOM      3  C3  <0> d   1       0.213   1.222  -0.997  0.00  0.00     0.048 A 
ATOM      4  C4  <0> d   1      -0.946   1.962  -0.778  0.00  0.00     0.118 A 
ATOM      5  C5  <0> d   1      -0.896   3.345  -0.701  0.00  0.00     0.041 A 
ATOM      6  C6  <0> d   1       0.316   4.005  -0.856  0.00  0.00     0.102 A 
ATOM      7  C7  <0> d   1       1.478   3.249  -1.082  0.00  0.00     0.057 A 
ATOM      8  C8  <0> d   1       2.586   4.214  -1.202  0.00  0.00     0.219 A 
ATOM      9  O1  <0> d   1       3.764   3.975  -1.402  0.00  0.00    -0.284 OA
ATOM     10  C9  <0> d   1       1.950   5.528  -1.028  0.00  0.00     0.128 A 
ATOM     11  C10 <0> d   1       2.577   6.732  -1.058  0.00  0.00     0.053 C 
ATOM     12  O4  <0> d   1       0.627   5.319  -0.830  0.00  0.00    -0.305 OA
ATOM     13  O6  <0> d   1      -2.135   1.323  -0.632  0.00  0.00    -0.191 OA
ENDROOT
BRANCH   5  14
ATOM     14  C19 <0> d   1      -2.157   4.132  -0.457  0.00  0.00     0.317 C 
BRANCH  14  15
ATOM     15  N1  <0> d   1      -2.783   4.465  -1.744  0.00  0.00     0.096 N 
ATOM     16  C23 <0> d   1      -4.129   5.022  -1.547  0.00  0.00     0.303 C 
ATOM     17  C22 <0> d   1      -4.776   5.281  -2.909  0.00  0.00     0.302 C 
ATOM     18  N2  <0> d   1      -3.934   6.206  -3.681  0.00  0.00     0.093 N 
ATOM     19  C21 <0> d   1      -2.588   5.649  -3.878  0.00  0.00     0.302 C 
ATOM     20  C20 <0> d   1      -1.941   5.390  -2.515  0.00  0.00     0.303 C 
BRANCH  18  21
ATOM     21  C24 <0> d   1      -4.559   6.539  -4.968  0.00  0.00     0.298 C 
BRANCH  21  22
ATOM     22  C25 <0> d   1      -4.517   5.317  -5.887  0.00  0.00     0.194 C 
BRANCH  22  23
ATOM     23  O5  <0> d   1      -5.356   4.290  -5.354  0.00  0.00    -0.399 OA
ATOM     24  H29 <0> d   1      -5.453   3.330  -5.882  0.00  0.00     0.209 HD
ENDBRANCH  22  23
ENDBRANCH  21  22
ENDBRANCH  18  21
ENDBRANCH  14  15
ENDBRANCH   5  14
BRANCH  11  25
ATOM     25  C11 <0> d   1       1.792   7.970  -0.980  0.00  0.00    -0.031 A 
ATOM     26  C16 <0> d   1       2.417   9.211  -1.157  0.00  0.00     0.051 A 
ATOM     27  C15 <0> d   1       1.673  10.371  -1.082  0.00  0.00     0.102 A 
ATOM     28  C14 <0> d   1       0.303  10.307  -0.831  0.00  0.00     0.101 A 
ATOM     29  C13 <0> d   1      -0.318   9.077  -0.655  0.00  0.00     0.040 A 
ATOM     30  C12 <0> d   1       0.414   7.914  -0.733  0.00  0.00     0.014 A 
BRANCH  27  31
ATOM     31  O2  <0> d   1       2.277  11.578  -1.253  0.00  0.00    -0.353 OA
ATOM     32  C17 <0> d   1       3.683  11.569  -1.508  0.00  0.00     0.210 C 
ENDBRANCH  27  31
BRANCH  28  33
ATOM     33  O3  <0> d   1      -0.426  11.450  -0.758  0.00  0.00    -0.353 OA
ATOM     34  C18 <0> d   1      -1.825  11.313  -0.498  0.00  0.00     0.210 C 
ENDBRANCH  28  33
ENDBRANCH  11  25
TORSDOF 8
