REMARK  7 active torsions:
REMARK  status: ('A' for Active; 'I' for Inactive)
REMARK    1  A    between atoms: O1_2  and  C2_3 
REMARK    2  A    between atoms: C5_6  and  C17_20 
REMARK    3  A    between atoms: C10_12  and  C11_14 
REMARK    4  A    between atoms: C17_20  and  N1_21 
REMARK    5  A    between atoms: N2_24  and  C22_27 
REMARK    6  A    between atoms: C22_27  and  C23_28 
REMARK    7  A    between atoms: C23_28  and  O4_29 
ROOT
ATOM      1  C2  <0> d   1      -0.909   2.857   4.283  0.00  0.00     0.088 A 
ATOM      2  C3  <0> d   1      -1.799   2.727   3.232  0.00  0.00     0.078 A 
ATOM      3  C4  <0> d   1      -1.352   2.300   1.987  0.00  0.00     0.120 A 
ATOM      4  C5  <0> d   1      -0.017   1.988   1.784  0.00  0.00     0.039 A 
ATOM      5  C6  <0> d   1       0.890   2.111   2.825  0.00  0.00     0.103 A 
ATOM      6  C7  <0> d   1       0.442   2.550   4.084  0.00  0.00     0.082 A 
ATOM      7  C8  <0> d   1       1.424   2.673   5.174  0.00  0.00     0.190 A 
ATOM      8  O2  <0> d   1       1.092   3.049   6.287  0.00  0.00    -0.287 OA
ATOM      9  C9  <0> d   1       2.769   2.340   4.881  0.00  0.00     0.094 A 
ATOM     10  C10 <0> d   1       3.099   1.925   3.630  0.00  0.00     0.090 A 
ATOM     11  O3  <0> d   1       2.195   1.816   2.643  0.00  0.00    -0.308 OA
ATOM     12  O5  <0> d   1      -2.233   2.181   0.961  0.00  0.00    -0.191 OA
ENDROOT
BRANCH   4  13
ATOM     13  C17 <0> d   1       0.450   1.520   0.430  0.00  0.00     0.279 C 
BRANCH  13  14
ATOM     14  N1  <0> d   1       0.357   0.056   0.359  0.00  0.00    -0.064 N 
ATOM     15  C21 <0> d   1       0.576  -0.420  -1.014  0.00  0.00     0.265 C 
ATOM     16  C20 <0> d   1       0.392  -1.939  -1.060  0.00  0.00     0.300 C 
ATOM     17  N2  <0> d   1       1.337  -2.572  -0.130  0.00  0.00     0.093 N 
ATOM     18  C19 <0> d   1       1.119  -2.097   1.243  0.00  0.00     0.300 C 
ATOM     19  C18 <0> d   1       1.302  -0.578   1.290  0.00  0.00     0.265 C 
ATOM     20  H26 <0> d   1      -0.660  -0.233   0.661  0.00  0.00     0.280 HD
BRANCH  17  21
ATOM     21  C22 <0> d   1       1.245  -4.037  -0.201  0.00  0.00     0.298 C 
BRANCH  21  22
ATOM     22  C23 <0> d   1       1.934  -4.530  -1.474  0.00  0.00     0.194 C 
BRANCH  22  23
ATOM     23  O4  <0> d   1       3.331  -4.236  -1.404  0.00  0.00    -0.399 OA
ATOM     24  H25 <0> d   1       3.995  -4.518  -2.235  0.00  0.00     0.209 HD
ENDBRANCH  22  23
ENDBRANCH  21  22
ENDBRANCH  17  21
ENDBRANCH  13  14
ENDBRANCH   4  13
BRANCH   1  25
ATOM     25  O1  <0> d   1      -1.342   3.281   5.497  0.00  0.00    -0.355 OA
ATOM     26  C1  <0> d   1      -2.735   3.576   5.623  0.00  0.00     0.210 C 
ENDBRANCH   1  25
BRANCH  10  27
ATOM     27  C11 <0> d   1       4.506   1.582   3.344  0.00  0.00    -0.002 A 
ATOM     28  C16 <0> d   1       4.878   1.153   2.068  0.00  0.00     0.014 A 
ATOM     29  C15 <0> d   1       6.195   0.834   1.808  0.00  0.00     0.001 A 
ATOM     30  C14 <0> d   1       7.146   0.937   2.808  0.00  0.00     0.000 A 
ATOM     31  C13 <0> d   1       6.784   1.361   4.074  0.00  0.00     0.001 A 
ATOM     32  C12 <0> d   1       5.472   1.689   4.347  0.00  0.00     0.014 A 
ENDBRANCH  10  27
TORSDOF 7
