REMARK  6 active torsions:
REMARK  status: ('A' for Active; 'I' for Inactive)
REMARK    1  A    between atoms: C6_6  and  C7_7 
REMARK    2  A    between atoms: C9_12  and  C10_13 
REMARK    3  A    between atoms: C13_16  and  O2_20 
REMARK    4  A    between atoms: O2_20  and  C16_21 
REMARK    5  A    between atoms: C16_21  and  C17_22 
REMARK    6  A    between atoms: C17_22  and  N3_23 
ROOT
ATOM      1  C10 <0> d   1       0.039  -1.419  -2.038  0.00  0.00     0.032 A 
ATOM      2  C11 <0> d   1       1.379  -1.117  -2.277  0.00  0.00     0.019 A 
ATOM      3  C12 <0> d   1       2.038  -1.699  -3.339  0.00  0.00     0.038 A 
ATOM      4  C13 <0> d   1       1.370  -2.585  -4.174  0.00  0.00     0.071 A 
ATOM      5  C14 <0> d   1       0.037  -2.891  -3.945  0.00  0.00     0.077 A 
ATOM      6  C15 <0> d   1      -0.631  -2.316  -2.877  0.00  0.00     0.122 A 
ATOM      7  O1  <0> d   1      -1.935  -2.619  -2.647  0.00  0.00    -0.191 OA
ENDROOT
BRANCH   1   8
ATOM      8  C9  <0> d   1      -0.672  -0.796  -0.897  0.00  0.00     0.102 A 
ATOM      9  C7  <0> d   1      -0.192  -0.699   0.434  0.00  0.00     0.022 A 
ATOM     10  C8  <0> d   1      -1.143  -0.055   1.167  0.00  0.00     0.124 A 
ATOM     11  N1  <0> d   1      -2.172   0.236   0.344  0.00  0.00    -0.288 N 
ATOM     12  H1  <0> d   1      -2.988   0.695   0.597  0.00  0.00     0.188 HD
ATOM     13  N2  <0> d   1      -1.861  -0.236  -0.937  0.00  0.00    -0.174 NA
BRANCH   9  14
ATOM     14  C6  <0> d   1       1.111  -1.203   0.936  0.00  0.00    -0.022 A 
ATOM     15  C1  <0> d   1       1.994  -0.338   1.579  0.00  0.00     0.014 A 
ATOM     16  C2  <0> d   1       3.204  -0.810   2.044  0.00  0.00     0.024 A 
ATOM     17  C3  <0> d   1       3.541  -2.142   1.872  0.00  0.00     0.034 A 
ATOM     18  C4  <0> d   1       2.667  -3.006   1.234  0.00  0.00     0.024 A 
ATOM     19 Cl1  <0> d   1       5.065  -2.731   2.459  0.00  0.00    -0.084 Cl
ATOM     20  C5  <0> d   1       1.455  -2.542   0.765  0.00  0.00     0.014 A 
ENDBRANCH   9  14
ENDBRANCH   1   8
BRANCH   4  21
ATOM     21  O2  <0> d   1       2.025  -3.155  -5.220  0.00  0.00    -0.349 OA
BRANCH  21  22
ATOM     22  C16 <0> d   1       1.279  -4.057  -6.039  0.00  0.00     0.206 C 
BRANCH  22  23
ATOM     23  C17 <0> d   1       2.177  -4.593  -7.156  0.00  0.00     0.299 C 
BRANCH  23  24
ATOM     24  N3  <0> d   1       3.269  -5.382  -6.570  0.00  0.00     0.094 N 
ATOM     25  C21 <0> d   1       2.788  -6.697  -6.122  0.00  0.00     0.298 C 
ATOM     26  C20 <0> d   1       3.942  -7.460  -5.466  0.00  0.00     0.198 C 
ATOM     27  O3  <0> d   1       5.025  -7.567  -6.394  0.00  0.00    -0.388 OA
ATOM     28  C19 <0> d   1       5.518  -6.305  -6.851  0.00  0.00     0.198 C 
ATOM     29  C18 <0> d   1       4.380  -5.530  -7.521  0.00  0.00     0.298 C 
ENDBRANCH  23  24
ENDBRANCH  22  23
ENDBRANCH  21  22
ENDBRANCH   4  21
TORSDOF 6
