REMARK  5 active torsions:
REMARK  status: ('A' for Active; 'I' for Inactive)
REMARK    1  A    between atoms: N2_5  and  C6_8 
REMARK    2  A    between atoms: C6_8  and  C7_9 
REMARK    3  A    between atoms: C8_10  and  O4_28 
REMARK    4  A    between atoms: C14_18  and  C16_20 
REMARK    5  A    between atoms: C20_24  and  O3_26 
ROOT
ATOM      1  C7  <0> d   1       2.097  -4.553   1.057  0.00  0.00     0.035 A 
ATOM      2  C8  <0> d   1       3.443  -4.810   0.851  0.00  0.00     0.076 A 
ATOM      3  C9  <0> d   1       4.237  -5.292   1.890  0.00  0.00     0.038 A 
ATOM      4  C10 <0> d   1       3.698  -5.529   3.121  0.00  0.00     0.017 A 
ATOM      5  C11 <0> d   1       2.333  -5.297   3.342  0.00  0.00    -0.000 A 
ATOM      6  C12 <0> d   1       1.537  -4.776   2.304  0.00  0.00     0.100 A 
ATOM      7  O1  <0> d   1       0.234  -4.481   2.534  0.00  0.00    -0.273 OA
ATOM      8  C13 <0> d   1      -0.385  -5.182   3.512  0.00  0.00     0.299 C 
ATOM      9  O2  <0> d   1      -1.542  -5.543   3.392  0.00  0.00    -0.259 OA
ATOM     10  C14 <0> d   1       0.387  -5.495   4.726  0.00  0.00     0.051 C 
ATOM     11  C15 <0> d   1       1.751  -5.570   4.607  0.00  0.00     0.032 C 
ENDROOT
BRANCH   1  12
ATOM     12  C6  <0> d   1       1.247  -4.025  -0.070  0.00  0.00     0.279 C 
BRANCH  12  13
ATOM     13  N2  <0> d   1       1.282  -2.557  -0.064  0.00  0.00    -0.064 N 
ATOM     14  C3  <0> d   1       0.553  -2.045  -1.232  0.00  0.00     0.265 C 
ATOM     15  C2  <0> d   1       0.605  -0.516  -1.237  0.00  0.00     0.299 C 
ATOM     16  N1  <0> d   1       0.002  -0.004   0.002  0.00  0.00     0.087 N 
ATOM     17  C1  <0> d   1      -0.018   1.465   0.010  0.00  0.00     0.310 C 
ATOM     18  C5  <0> d   1       0.707  -0.528   1.181  0.00  0.00     0.299 C 
ATOM     19  C4  <0> d   1       0.653  -2.057   1.165  0.00  0.00     0.265 C 
ATOM     20  H25 <0> d   1       2.241  -2.244  -0.103  0.00  0.00     0.280 HD
ENDBRANCH  12  13
ENDBRANCH   1  12
BRANCH   2  21
ATOM     21  O4  <0> d   1       3.992  -4.593  -0.371  0.00  0.00    -0.360 OA
ATOM     22  H24 <0> d   1       4.345  -3.701  -0.490  0.00  0.00     0.217 HD
ENDBRANCH   2  21
BRANCH  10  23
ATOM     23  C16 <0> d   1      -0.286  -5.730   6.025  0.00  0.00    -0.017 A 
ATOM     24  C21 <0> d   1      -0.987  -4.698   6.647  0.00  0.00     0.049 A 
ATOM     25  C20 <0> d   1      -1.618  -4.927   7.858  0.00  0.00     0.069 A 
ATOM     26  C19 <0> d   1      -1.543  -6.178   8.455  0.00  0.00     0.037 A 
ATOM     27  C18 <0> d   1      -0.844  -7.201   7.842  0.00  0.00     0.004 A 
ATOM     28  C17 <0> d   1      -0.216  -6.984   6.632  0.00  0.00     0.012 A 
BRANCH  25  29
ATOM     29  O3  <0> d   1      -2.307  -3.925   8.465  0.00  0.00    -0.356 OA
ATOM     30  C22 <0> d   1      -2.929  -4.229   9.715  0.00  0.00     0.210 C 
ENDBRANCH  25  29
ENDBRANCH  10  23
TORSDOF 5
