REMARK  5 active torsions:
REMARK  status: ('A' for Active; 'I' for Inactive)
REMARK    1  A    between atoms: C2_2  and  N1_3 
REMARK    2  A    between atoms: N2_6  and  C7_9 
REMARK    3  A    between atoms: C7_9  and  C8_10 
REMARK    4  A    between atoms: C9_11  and  O3_28 
REMARK    5  A    between atoms: C15_18  and  C17_21 
ROOT
ATOM      1  C8  <0> d   1      -0.631   1.724   3.640  0.00  0.00     0.035 A 
ATOM      2  C9  <0> d   1      -1.744   1.203   4.279  0.00  0.00     0.076 A 
ATOM      3  C10 <0> d   1      -2.279   1.835   5.400  0.00  0.00     0.038 A 
ATOM      4  C11 <0> d   1      -1.710   2.979   5.883  0.00  0.00     0.021 A 
ATOM      5  C12 <0> d   1      -0.589   3.516   5.250  0.00  0.00     0.050 A 
ATOM      6  C13 <0> d   1      -0.038   2.883   4.121  0.00  0.00     0.100 A 
ATOM      7  O1  <0> d   1       1.049   3.400   3.515  0.00  0.00    -0.320 OA
ATOM      8  C14 <0> d   1       1.663   4.510   3.931  0.00  0.00     0.159 A 
ATOM      9  C15 <0> d   1       1.240   5.218   5.011  0.00  0.00     0.048 A 
ATOM     10  C16 <0> d   1       0.051   4.749   5.743  0.00  0.00     0.197 A 
ATOM     11  O2  <0> d   1      -0.374   5.343   6.719  0.00  0.00    -0.286 OA
ENDROOT
BRANCH   1  12
ATOM     12  C7  <0> d   1      -0.062   1.031   2.429  0.00  0.00     0.279 C 
BRANCH  12  13
ATOM     13  N2  <0> d   1      -0.701   1.560   1.216  0.00  0.00    -0.064 N 
ATOM     14  C4  <0> d   1      -0.013   1.086   0.008  0.00  0.00     0.265 C 
ATOM     15  C3  <0> d   1      -0.754   1.593  -1.231  0.00  0.00     0.300 C 
ATOM     16  N1  <0> d   1      -0.806   3.062  -1.200  0.00  0.00     0.091 N 
ATOM     17  C6  <0> d   1      -1.495   3.536   0.008  0.00  0.00     0.300 C 
ATOM     18  C5  <0> d   1      -0.754   3.029   1.247  0.00  0.00     0.265 C 
ATOM     19  H24 <0> d   1      -1.735   1.184   1.189  0.00  0.00     0.280 HD
BRANCH  16  20
ATOM     20  C2  <0> d   1      -1.445   3.591  -2.413  0.00  0.00     0.268 C 
ATOM     21  C1  <0> d   1      -1.707   5.088  -2.239  0.00  0.00     0.037 C 
ENDBRANCH  16  20
ENDBRANCH  12  13
ENDBRANCH   1  12
BRANCH   2  22
ATOM     22  O3  <0> d   1      -2.319   0.067   3.809  0.00  0.00    -0.360 OA
ATOM     23  H23 <0> d   1      -3.203  -0.352   4.314  0.00  0.00     0.217 HD
ENDBRANCH   2  22
BRANCH   9  24
ATOM     24  C17 <0> d   1       1.954   6.446   5.437  0.00  0.00    -0.020 A 
ATOM     25  C22 <0> d   1       3.338   6.429   5.599  0.00  0.00     0.014 A 
ATOM     26  C21 <0> d   1       3.998   7.574   5.996  0.00  0.00     0.024 A 
ATOM     27  C20 <0> d   1       3.288   8.739   6.232  0.00  0.00     0.034 A 
ATOM     28  C19 <0> d   1       1.913   8.761   6.071  0.00  0.00     0.024 A 
ATOM     29 Cl1  <0> d   1       4.124  10.176   6.730  0.00  0.00    -0.084 Cl
ATOM     30  C18 <0> d   1       1.244   7.622   5.670  0.00  0.00     0.014 A 
ENDBRANCH   9  24
TORSDOF 5
