REMARK  5 active torsions:
REMARK  status: ('A' for Active; 'I' for Inactive)
REMARK    1  A    between atoms: C2_2  and  N1_3 
REMARK    2  A    between atoms: N2_6  and  C7_9 
REMARK    3  A    between atoms: C7_9  and  C8_10 
REMARK    4  A    between atoms: C9_11  and  O3_27 
REMARK    5  A    between atoms: C15_18  and  C16_19 
ROOT
ATOM      1  C8  <0> d   1       2.962  -4.046  -3.482  0.00  0.00     0.036 A 
ATOM      2  C9  <0> d   1       4.030  -4.791  -3.007  0.00  0.00     0.076 A 
ATOM      3  C10 <0> d   1       4.157  -6.138  -3.337  0.00  0.00     0.038 A 
ATOM      4  C11 <0> d   1       3.225  -6.739  -4.135  0.00  0.00     0.021 A 
ATOM      5  C12 <0> d   1       2.145  -6.002  -4.620  0.00  0.00     0.051 A 
ATOM      6  C13 <0> d   1       2.003  -4.644  -4.290  0.00  0.00     0.101 A 
ATOM      7  O1  <0> d   1       0.886  -4.149  -4.865  0.00  0.00    -0.305 OA
ATOM      8  C14 <0> d   1       0.229  -5.091  -5.581  0.00  0.00     0.127 A 
ATOM      9  C15 <0> d   1      -0.922  -4.911  -6.276  0.00  0.00     0.053 C 
ATOM     10  C22 <0> d   1       0.997  -6.343  -5.480  0.00  0.00     0.218 A 
ATOM     11  O2  <0> d   1       0.736  -7.421  -5.983  0.00  0.00    -0.284 OA
ENDROOT
BRANCH   1  12
ATOM     12  C7  <0> d   1       2.838  -2.590  -3.117  0.00  0.00     0.279 C 
BRANCH  12  13
ATOM     13  N2  <0> d   1       2.065  -2.460  -1.874  0.00  0.00    -0.064 N 
ATOM     14  C4  <0> d   1       2.046  -1.053  -1.455  0.00  0.00     0.265 C 
ATOM     15  C3  <0> d   1       1.257  -0.920  -0.150  0.00  0.00     0.300 C 
ATOM     16  N1  <0> d   1      -0.114  -1.406  -0.359  0.00  0.00     0.091 N 
ATOM     17  C6  <0> d   1      -0.110  -2.807  -0.803  0.00  0.00     0.300 C 
ATOM     18  C5  <0> d   1       0.690  -2.924  -2.102  0.00  0.00     0.265 C 
ATOM     19  H25 <0> d   1       2.494  -3.020  -1.153  0.00  0.00     0.280 HD
BRANCH  16  20
ATOM     20  C2  <0> d   1      -0.922  -1.243   0.858  0.00  0.00     0.268 C 
ATOM     21  C1  <0> d   1      -1.110   0.247   1.149  0.00  0.00     0.037 C 
ENDBRANCH  16  20
ENDBRANCH  12  13
ENDBRANCH   1  12
BRANCH   2  22
ATOM     22  O3  <0> d   1       4.961  -4.202  -2.214  0.00  0.00    -0.360 OA
ATOM     23  H24 <0> d   1       4.760  -4.251  -1.269  0.00  0.00     0.217 HD
ENDBRANCH   2  22
BRANCH   9  24
ATOM     24  C16 <0> d   1      -1.495  -3.565  -6.413  0.00  0.00    -0.034 A 
ATOM     25  C21 <0> d   1      -2.761  -3.394  -6.985  0.00  0.00     0.011 A 
ATOM     26  C20 <0> d   1      -3.294  -2.128  -7.103  0.00  0.00     0.001 A 
ATOM     27  C19 <0> d   1      -2.575  -1.027  -6.671  0.00  0.00     0.000 A 
ATOM     28  C18 <0> d   1      -1.320  -1.187  -6.110  0.00  0.00     0.001 A 
ATOM     29  C17 <0> d   1      -0.775  -2.446  -5.978  0.00  0.00     0.011 A 
ENDBRANCH   9  24
TORSDOF 5
