REMARK  5 active torsions:
REMARK  status: ('A' for Active; 'I' for Inactive)
REMARK    1  A    between atoms: O1_2  and  C2_3 
REMARK    2  A    between atoms: C6_7  and  O2_9 
REMARK    3  A    between atoms: O2_9  and  C8_10 
REMARK    4  A    between atoms: C16_20  and  C17_21 
REMARK    5  A    between atoms: C17_21  and  N1_22 
ROOT
ATOM      1  C8  <0> d   1      -2.456   5.287   0.363  0.00  0.00     0.149 A 
ATOM      2  C9  <0> d   1      -1.301   5.855   0.763  0.00  0.00     0.184 A 
ATOM      3  O3  <0> d   1      -0.208   5.141   1.064  0.00  0.00    -0.318 OA
ATOM      4  C10 <0> d   1      -0.181   3.796   0.989  0.00  0.00     0.100 A 
ATOM      5  C11 <0> d   1      -1.332   3.095   0.583  0.00  0.00     0.051 A 
ATOM      6  C12 <0> d   1      -2.539   3.870   0.249  0.00  0.00     0.220 A 
ATOM      7  O4  <0> d   1      -3.567   3.321  -0.110  0.00  0.00    -0.284 OA
ATOM      8  C13 <0> d   1      -1.314   1.703   0.496  0.00  0.00     0.021 A 
ATOM      9  C14 <0> d   1      -0.177   1.018   0.820  0.00  0.00     0.041 A 
ATOM     10  C15 <0> d   1       0.967   1.703   1.223  0.00  0.00     0.118 A 
ATOM     11  C16 <0> d   1       0.967   3.086   1.309  0.00  0.00     0.039 A 
ATOM     12  O5  <0> d   1       2.091   1.010   1.536  0.00  0.00    -0.191 OA
ENDROOT
BRANCH   1  13
ATOM     13  O2  <0> d   1      -3.535   6.063   0.069  0.00  0.00    -0.305 OA
BRANCH  13  14
ATOM     14  C6  <0> d   1      -3.402   7.410   0.180  0.00  0.00     0.079 A 
ATOM     15  C5  <0> d   1      -3.693   8.041   1.381  0.00  0.00     0.037 A 
ATOM     16  C4  <0> d   1      -3.552   9.411   1.496  0.00  0.00     0.005 A 
ATOM     17  C3  <0> d   1      -3.131  10.157   0.412  0.00  0.00     0.037 A 
ATOM     18  C2  <0> d   1      -2.844   9.532  -0.794  0.00  0.00     0.070 A 
ATOM     19  C7  <0> d   1      -2.979   8.158  -0.910  0.00  0.00     0.074 A 
BRANCH  18  20
ATOM     20  O1  <0> d   1      -2.430  10.267  -1.859  0.00  0.00    -0.356 OA
ATOM     21  C1  <0> d   1      -2.313  11.678  -1.668  0.00  0.00     0.210 C 
ENDBRANCH  18  20
ENDBRANCH  13  14
ENDBRANCH   1  13
BRANCH  11  22
ATOM     22  C17 <0> d   1       2.211   3.816   1.747  0.00  0.00     0.279 C 
BRANCH  22  23
ATOM     23  N1  <0> d   1       3.032   4.134   0.571  0.00  0.00    -0.067 N 
ATOM     24  C22 <0> d   1       4.127   5.046   0.925  0.00  0.00     0.235 C 
ATOM     25  C21 <0> d   1       4.870   5.470  -0.344  0.00  0.00     0.028 C 
ATOM     26  C20 <0> d   1       5.423   4.226  -1.044  0.00  0.00     0.003 C 
ATOM     27  C19 <0> d   1       4.269   3.271  -1.359  0.00  0.00     0.028 C 
ATOM     28  C18 <0> d   1       3.543   2.911  -0.060  0.00  0.00     0.235 C 
ATOM     29  H23 <0> d   1       2.391   4.647  -0.161  0.00  0.00     0.280 HD
ENDBRANCH  22  23
ENDBRANCH  11  22
TORSDOF 5
