REMARK  8 active torsions:
REMARK  status: ('A' for Active; 'I' for Inactive)
REMARK    1  A    between atoms: C2_2  and  C4_4 
REMARK    2  A    between atoms: C4_4  and  O1_5 
REMARK    3  A    between atoms: O1_5  and  C5_6 
REMARK    4  A    between atoms: C7_8  and  O2_9 
REMARK    5  A    between atoms: C8_10  and  C9_11 
REMARK    6  A    between atoms: C10_12  and  C14_21 
REMARK    7  A    between atoms: C11_13  and  C13_17 
REMARK    8  A    between atoms: C17_24  and  O3_27 
ROOT
ATOM      1  C9  <0> d   1       0.195  -5.529  -5.552  0.00  0.00     0.084 A 
ATOM      2  C10 <0> d   1      -0.090  -5.010  -6.831  0.00  0.00     0.038 A 
ATOM      3  C11 <0> d   1      -0.253  -5.910  -7.883  0.00  0.00     0.155 A 
ATOM      4  N1  <0> d   1      -0.134  -7.206  -7.644  0.00  0.00    -0.236 NA
ATOM      5  C12 <0> d   1       0.133  -7.656  -6.434  0.00  0.00     0.234 A 
ATOM      6  N2  <0> d   1       0.301  -6.849  -5.407  0.00  0.00    -0.240 NA
ENDROOT
BRANCH   1   7
ATOM      7  C8  <0> d   1       0.378  -4.627  -4.395  0.00  0.00     0.027 A 
ATOM      8  C7  <0> d   1      -0.312  -4.867  -3.200  0.00  0.00     0.081 A 
ATOM      9  C6  <0> d   1      -0.136  -4.017  -2.121  0.00  0.00     0.074 A 
ATOM     10  C5  <0> d   1       0.722  -2.932  -2.225  0.00  0.00     0.071 A 
ATOM     11  C22 <0> d   1       1.403  -2.690  -3.412  0.00  0.00     0.038 A 
ATOM     12  C21 <0> d   1       1.239  -3.533  -4.490  0.00  0.00     0.019 A 
BRANCH   8  13
ATOM     13  O2  <0> d   1      -1.151  -5.929  -3.100  0.00  0.00    -0.360 OA
ATOM     14  H19 <0> d   1      -2.063  -5.735  -3.357  0.00  0.00     0.217 HD
ENDBRANCH   8  13
BRANCH  10  15
ATOM     15  O1  <0> d   1       0.893  -2.101  -1.165  0.00  0.00    -0.347 OA
BRANCH  15  16
ATOM     16  C4  <0> d   1       1.786  -1.000  -1.342  0.00  0.00     0.208 C 
BRANCH  16  17
ATOM     17  C2  <0> d   1       1.848  -0.194  -0.070  0.00  0.00    -0.069 C 
ATOM     18  C1  <0> d   1       2.726   1.029   0.006  0.00  0.00     0.044 C 
ATOM     19  C3  <0> d   1       1.140  -0.556   0.971  0.00  0.00     0.016 C 
ENDBRANCH  16  17
ENDBRANCH  15  16
ENDBRANCH  10  15
ENDBRANCH   1   7
BRANCH   2  20
ATOM     20  C14 <0> d   1      -0.213  -3.549  -7.050  0.00  0.00    -0.021 A 
ATOM     21  C19 <0> d   1       0.742  -2.873  -7.808  0.00  0.00     0.015 A 
ATOM     22  C18 <0> d   1       0.621  -1.515  -8.016  0.00  0.00     0.037 A 
ATOM     23  C17 <0> d   1      -0.445  -0.819  -7.461  0.00  0.00     0.068 A 
ATOM     24  C16 <0> d   1      -1.394  -1.488  -6.700  0.00  0.00     0.037 A 
ATOM     25  C15 <0> d   1      -1.282  -2.847  -6.494  0.00  0.00     0.015 A 
BRANCH  23  26
ATOM     26  O3  <0> d   1      -0.558   0.520  -7.662  0.00  0.00    -0.356 OA
ATOM     27  C20 <0> d   1       0.454   1.145  -8.454  0.00  0.00     0.210 C 
ENDBRANCH  23  26
ENDBRANCH   2  20
BRANCH   3  28
ATOM     28  C13 <0> d   1      -0.559  -5.414  -9.273  0.00  0.00     0.435 C 
ATOM     29  F1  <0> d   1       0.638  -5.190  -9.962  0.00  0.00    -0.165 F 
ATOM     30  F2  <0> d   1      -1.317  -6.372  -9.954  0.00  0.00    -0.165 F 
ATOM     31  F3  <0> d   1      -1.281  -4.218  -9.193  0.00  0.00    -0.165 F 
ENDBRANCH   3  28
TORSDOF 8
