REMARK  7 active torsions:
REMARK  status: ('A' for Active; 'I' for Inactive)
REMARK    1  A    between atoms: C3_3  and  C24_31 
REMARK    2  A    between atoms: C8_9  and  O5_30 
REMARK    3  A    between atoms: C9_10  and  C11_13 
REMARK    4  A    between atoms: C11_13  and  N1_14 
REMARK    5  A    between atoms: N2_17  and  C16_20 
REMARK    6  A    between atoms: C16_20  and  C17_21 
REMARK    7  A    between atoms: C27_34  and  O6_37 
ROOT
ATOM      1  C1  <0> d   1      -0.018   1.503   0.010  0.00  0.00     0.077 C 
ATOM      2  C2  <0> d   1       0.002  -0.004   0.002  0.00  0.00     0.065 C 
ATOM      3  C3  <0> d   1      -1.182  -0.671   0.004  0.00  0.00     0.054 C 
ATOM      4  C4  <0> d   1      -1.150  -2.146   0.014  0.00  0.00     0.198 C 
ATOM      5  O1  <0> d   1      -2.144  -2.815  -0.209  0.00  0.00    -0.286 OA
ATOM      6  C5  <0> d   1       0.158  -2.762   0.308  0.00  0.00     0.050 A 
ATOM      7  C6  <0> d   1       0.273  -4.121   0.598  0.00  0.00     0.021 A 
ATOM      8  C7  <0> d   1       1.501  -4.653   0.871  0.00  0.00     0.038 A 
ATOM      9  C8  <0> d   1       2.635  -3.843   0.863  0.00  0.00     0.076 A 
ATOM     10  C9  <0> d   1       2.536  -2.493   0.574  0.00  0.00     0.038 A 
ATOM     11  C10 <0> d   1       1.296  -1.936   0.290  0.00  0.00     0.100 A 
ATOM     12  O2  <0> d   1       1.182  -0.627  -0.013  0.00  0.00    -0.313 OA
ENDROOT
BRANCH  10  13
ATOM     13  C11 <0> d   1       3.771  -1.629   0.569  0.00  0.00     0.317 C 
BRANCH  13  14
ATOM     14  N1  <0> d   1       4.357  -1.622  -0.778  0.00  0.00     0.096 N 
ATOM     15  C15 <0> d   1       5.418  -0.611  -0.885  0.00  0.00     0.303 C 
ATOM     16  C14 <0> d   1       5.947  -0.581  -2.321  0.00  0.00     0.303 C 
ATOM     17  N2  <0> d   1       6.455  -1.912  -2.682  0.00  0.00     0.096 N 
ATOM     18  C13 <0> d   1       5.394  -2.923  -2.575  0.00  0.00     0.303 C 
ATOM     19  C12 <0> d   1       4.864  -2.953  -1.139  0.00  0.00     0.303 C 
BRANCH  17  20
ATOM     20  C16 <0> d   1       7.041  -1.905  -4.029  0.00  0.00     0.311 C 
BRANCH  20  21
ATOM     21  C17 <0> d   1       8.276  -1.041  -4.035  0.00  0.00    -0.027 A 
ATOM     22  C22 <0> d   1       9.509  -1.599  -3.751  0.00  0.00     0.048 A 
ATOM     23  C21 <0> d   1      10.646  -0.807  -3.761  0.00  0.00     0.105 A 
ATOM     24  C20 <0> d   1      10.542   0.552  -4.046  0.00  0.00     0.105 A 
ATOM     25  O3  <0> d   1      11.957  -1.104  -3.525  0.00  0.00    -0.323 OA
ATOM     26  C19 <0> d   1       9.302   1.105  -4.323  0.00  0.00     0.040 A 
ATOM     27  O4  <0> d   1      11.788   1.107  -3.989  0.00  0.00    -0.323 OA
ATOM     28  C18 <0> d   1       8.172   0.308  -4.317  0.00  0.00     0.012 A 
ATOM     29  C23 <0> d   1      12.705  -0.000  -4.068  0.00  0.00     0.352 C 
ENDBRANCH  20  21
ENDBRANCH  17  20
ENDBRANCH  13  14
ENDBRANCH  10  13
BRANCH   9  30
ATOM     30  O5  <0> d   1       3.849  -4.384   1.140  0.00  0.00    -0.360 OA
ATOM     31  H23 <0> d   1       4.319  -4.715   0.363  0.00  0.00     0.217 HD
ENDBRANCH   9  30
BRANCH   3  32
ATOM     32  C24 <0> d   1      -2.470   0.064  -0.002  0.00  0.00    -0.019 A 
ATOM     33  C29 <0> d   1      -3.328  -0.040  -1.096  0.00  0.00     0.015 A 
ATOM     34  C28 <0> d   1      -4.529   0.639  -1.096  0.00  0.00     0.037 A 
ATOM     35  C27 <0> d   1      -4.877   1.435  -0.014  0.00  0.00     0.068 A 
ATOM     36  C26 <0> d   1      -4.023   1.545   1.074  0.00  0.00     0.037 A 
ATOM     37  C25 <0> d   1      -2.824   0.863   1.083  0.00  0.00     0.015 A 
BRANCH  35  38
ATOM     38  O6  <0> d   1      -6.058   2.108  -0.019  0.00  0.00    -0.356 OA
ATOM     39  C30 <0> d   1      -6.889   1.950  -1.171  0.00  0.00     0.210 C 
ENDBRANCH  35  38
ENDBRANCH   3  32
TORSDOF 7
