REMARK  11 active torsions:
REMARK  status: ('A' for Active; 'I' for Inactive)
REMARK    1  A    between atoms: C2_2  and  N1_3 
REMARK    2  A    between atoms: C4_5  and  C11_12 
REMARK    3  A    between atoms: C17_19  and  O5_33 
REMARK    4  A    between atoms: C18_20  and  C20_23 
REMARK    5  A    between atoms: C20_23  and  N2_24 
REMARK    6  A    between atoms: N2_24  and  C21_25 
REMARK    7  A    between atoms: N2_24  and  C24_29 
REMARK    8  A    between atoms: C21_25  and  C22_26 
REMARK    9  A    between atoms: C22_26  and  O3_27 
REMARK   10  A    between atoms: C24_29  and  C25_30 
REMARK   11  A    between atoms: C25_30  and  O4_31 
ROOT
ATOM      1  C11 <0> d   1      -2.098   1.717   0.756  0.00  0.00     0.055 C 
ATOM      2  C12 <0> d   1      -2.486   0.411   0.729  0.00  0.00     0.128 A 
ATOM      3  C13 <0> d   1      -3.808  -0.066   0.930  0.00  0.00     0.218 A 
ATOM      4  O1  <0> d   1      -4.808   0.595   1.158  0.00  0.00    -0.284 OA
ATOM      5  C14 <0> d   1      -3.714  -1.530   0.802  0.00  0.00     0.051 A 
ATOM      6  C15 <0> d   1      -4.646  -2.565   0.889  0.00  0.00     0.021 A 
ATOM      7  C16 <0> d   1      -4.242  -3.860   0.726  0.00  0.00     0.038 A 
ATOM      8  C17 <0> d   1      -2.904  -4.150   0.472  0.00  0.00     0.076 A 
ATOM      9  C18 <0> d   1      -1.968  -3.133   0.383  0.00  0.00     0.036 A 
ATOM     10  C19 <0> d   1      -2.362  -1.812   0.547  0.00  0.00     0.101 A 
ATOM     11  O2  <0> d   1      -1.675  -0.650   0.511  0.00  0.00    -0.305 OA
ENDROOT
BRANCH   1  12
ATOM     12  C4  <0> d   1      -0.697   2.068   0.537  0.00  0.00    -0.005 A 
ATOM     13  C3  <0> d   1       0.345   1.199   0.292  0.00  0.00     0.103 A 
ATOM     14  N1  <0> d   1       1.494   1.902   0.138  0.00  0.00    -0.356 N 
ATOM     15  C6  <0> d   1       1.257   3.254   0.279  0.00  0.00     0.045 A 
ATOM     16  C5  <0> d   1      -0.113   3.423   0.537  0.00  0.00     0.002 A 
ATOM     17  C7  <0> d   1       2.081   4.373   0.213  0.00  0.00     0.030 A 
ATOM     18  C10 <0> d   1      -0.636   4.700   0.723  0.00  0.00     0.014 A 
ATOM     19  C9  <0> d   1       0.196   5.796   0.654  0.00  0.00     0.001 A 
ATOM     20  C8  <0> d   1       1.550   5.631   0.400  0.00  0.00     0.002 A 
BRANCH  14  21
ATOM     21  C2  <0> d   1       2.804   1.309  -0.139  0.00  0.00     0.124 C 
ATOM     22  C1  <0> d   1       3.564   1.113   1.174  0.00  0.00     0.027 C 
ENDBRANCH  14  21
ENDBRANCH   1  12
BRANCH   9  23
ATOM     23  C20 <0> d   1      -0.522  -3.461   0.109  0.00  0.00     0.279 C 
BRANCH  23  24
ATOM     24  N2  <0> d   1       0.224  -3.481   1.374  0.00  0.00    -0.063 N 
ATOM     25  H30 <0> d   1      -0.074  -2.596   1.956  0.00  0.00     0.280 HD
BRANCH  24  26
ATOM     26  C21 <0> d   1      -0.111  -4.673   2.163  0.00  0.00     0.261 C 
BRANCH  26  27
ATOM     27  C22 <0> d   1       0.332  -5.927   1.406  0.00  0.00     0.194 C 
BRANCH  27  28
ATOM     28  O3  <0> d   1       1.757  -6.027   1.441  0.00  0.00    -0.394 OA
ATOM     29  C23 <0> d   1       2.284  -7.107   0.668  0.00  0.00     0.201 C 
ENDBRANCH  27  28
ENDBRANCH  26  27
ENDBRANCH  24  26
BRANCH  24  30
ATOM     30  C24 <0> d   1       1.671  -3.397   1.133  0.00  0.00     0.261 C 
BRANCH  30  31
ATOM     31  C25 <0> d   1       2.387  -3.066   2.444  0.00  0.00     0.194 C 
BRANCH  31  32
ATOM     32  O4  <0> d   1       2.270  -4.170   3.344  0.00  0.00    -0.394 OA
ATOM     33  C26 <0> d   1       2.811  -3.921   4.643  0.00  0.00     0.201 C 
ENDBRANCH  31  32
ENDBRANCH  30  31
ENDBRANCH  24  30
ENDBRANCH  23  24
ENDBRANCH   9  23
BRANCH   8  34
ATOM     34  O5  <0> d   1      -2.514  -5.440   0.311  0.00  0.00    -0.360 OA
ATOM     35  H31 <0> d   1      -1.458  -5.675   0.111  0.00  0.00     0.217 HD
ENDBRANCH   8  34
TORSDOF 11
