REMARK  2 active torsions:
REMARK  status: ('A' for Active; 'I' for Inactive)
REMARK    1  A    between atoms: C2_2  and  N1_3 
REMARK    2  A    between atoms: C4_5  and  C11_12 
ROOT
ATOM      1  C11 <0> d   1       0.566   6.313   2.228  0.00  0.00     0.055 C 
ATOM      2  C12 <0> d   1       1.681   6.136   2.991  0.00  0.00     0.128 A 
ATOM      3  C13 <0> d   1       2.478   7.172   3.547  0.00  0.00     0.218 A 
ATOM      4  O1  <0> d   1       2.308   8.375   3.443  0.00  0.00    -0.284 OA
ATOM      5  C14 <0> d   1       3.553   6.480   4.280  0.00  0.00     0.051 A 
ATOM      6  C15 <0> d   1       4.641   6.922   5.034  0.00  0.00     0.021 A 
ATOM      7  C16 <0> d   1       5.489   6.014   5.601  0.00  0.00     0.041 A 
ATOM      8  C17 <0> d   1       5.271   4.649   5.431  0.00  0.00     0.116 A 
ATOM      9  C18 <0> d   1       4.195   4.196   4.685  0.00  0.00     0.009 A 
ATOM     10  C19 <0> d   1       3.324   5.106   4.102  0.00  0.00     0.099 A 
ATOM     11  O2  <0> d   1       2.220   4.944   3.342  0.00  0.00    -0.305 OA
ATOM     12  C20 <0> d   1       3.970   2.716   4.508  0.00  0.00     0.054 C 
ATOM     13  O3  <0> d   1       6.120   3.756   5.999  0.00  0.00    -0.192 OA
ENDROOT
BRANCH   1  14
ATOM     14  C4  <0> d   1      -0.158   5.152   1.713  0.00  0.00    -0.005 A 
ATOM     15  C3  <0> d   1       0.156   3.825   1.915  0.00  0.00     0.103 A 
ATOM     16  N1  <0> d   1      -0.749   3.044   1.275  0.00  0.00    -0.356 N 
ATOM     17  C6  <0> d   1      -1.695   3.821   0.637  0.00  0.00     0.045 A 
ATOM     18  C5  <0> d   1      -1.375   5.167   0.878  0.00  0.00     0.002 A 
ATOM     19  C7  <0> d   1      -2.811   3.514  -0.133  0.00  0.00     0.030 A 
ATOM     20  C10 <0> d   1      -2.170   6.179   0.349  0.00  0.00     0.014 A 
ATOM     21  C9  <0> d   1      -3.272   5.855  -0.412  0.00  0.00     0.001 A 
ATOM     22  C8  <0> d   1      -3.589   4.526  -0.652  0.00  0.00     0.002 A 
BRANCH  16  23
ATOM     23  C2  <0> d   1      -0.729   1.579   1.267  0.00  0.00     0.124 C 
ATOM     24  C1  <0> d   1      -0.013   1.086   0.008  0.00  0.00     0.027 C 
ENDBRANCH  16  23
ENDBRANCH   1  14
TORSDOF 2
