REMARK  6 active torsions:
REMARK  status: ('A' for Active; 'I' for Inactive)
REMARK    1  A    between atoms: O1_2  and  C2_3 
REMARK    2  A    between atoms: C5_6  and  C9_11 
REMARK    3  A    between atoms: C7_8  and  O2_9 
REMARK    4  A    between atoms: C15_18  and  O6_37 
REMARK    5  A    between atoms: C16_19  and  C18_22 
REMARK    6  A    between atoms: C18_22  and  N1_23 
ROOT
ATOM      1  C9  <0> d   1      -6.919   5.373   1.375  0.00  0.00     0.053 C 
ATOM      2  C10 <0> d   1      -5.642   5.566   1.795  0.00  0.00     0.127 A 
ATOM      3  C11 <0> d   1      -5.227   6.032   3.126  0.00  0.00     0.218 A 
ATOM      4  O3  <0> d   1      -5.940   6.324   4.071  0.00  0.00    -0.284 OA
ATOM      5  C12 <0> d   1      -3.754   6.068   3.062  0.00  0.00     0.051 A 
ATOM      6  C13 <0> d   1      -2.767   6.418   3.984  0.00  0.00     0.021 A 
ATOM      7  C14 <0> d   1      -1.450   6.350   3.630  0.00  0.00     0.038 A 
ATOM      8  C15 <0> d   1      -1.090   5.932   2.351  0.00  0.00     0.076 A 
ATOM      9  C16 <0> d   1      -2.059   5.581   1.426  0.00  0.00     0.038 A 
ATOM     10  C17 <0> d   1      -3.404   5.650   1.769  0.00  0.00     0.101 A 
ATOM     11  O4  <0> d   1      -4.521   5.362   1.065  0.00  0.00    -0.305 OA
ENDROOT
BRANCH   9  12
ATOM     12  C18 <0> d   1      -1.655   5.131   0.046  0.00  0.00     0.316 C 
BRANCH  12  13
ATOM     13  N1  <0> d   1      -1.472   3.673   0.040  0.00  0.00     0.093 N 
ATOM     14  C23 <0> d   1      -0.687   3.236   1.206  0.00  0.00     0.283 C 
ATOM     15  C22 <0> d   1      -0.684   1.698   1.228  0.00  0.00     0.065 C 
ATOM     16  C21 <0> d   1       0.056   1.208  -0.022  0.00  0.00     0.020 C 
ATOM     17  C24 <0> d   1      -2.124   1.241   1.165  0.00  0.00     0.020 A 
ATOM     18  C20 <0> d   1      -0.717   1.711  -1.245  0.00  0.00     0.033 C 
ATOM     19  C19 <0> d   1      -0.853   3.226  -1.212  0.00  0.00     0.279 C 
ATOM     20  C29 <0> d   1      -2.071   1.022  -1.305  0.00  0.00     0.138 C 
ATOM     21  N2  <0> d   1      -2.760   1.035  -0.011  0.00  0.00    -0.317 N 
ATOM     22  C28 <0> d   1      -4.090   0.772  -0.021  0.00  0.00     0.247 A 
ATOM     23  C27 <0> d   1      -4.785   0.555   1.176  0.00  0.00     0.074 A 
ATOM     24  O5  <0> d   1      -4.688   0.723  -1.085  0.00  0.00    -0.268 OA
ATOM     25  C26 <0> d   1      -4.121   0.679   2.361  0.00  0.00     0.007 A 
ATOM     26  C25 <0> d   1      -2.770   1.042   2.344  0.00  0.00     0.026 A 
ENDBRANCH  12  13
ENDBRANCH   9  12
BRANCH   8  27
ATOM     27  O6  <0> d   1       0.222   5.868   2.009  0.00  0.00    -0.360 OA
ATOM     28  H28 <0> d   1       0.512   5.538   1.000  0.00  0.00     0.217 HD
ENDBRANCH   8  27
BRANCH   1  29
ATOM     29  C5  <0> d   1      -7.185   5.012  -0.022  0.00  0.00    -0.031 A 
ATOM     30  C4  <0> d   1      -6.122   4.740  -0.892  0.00  0.00     0.014 A 
ATOM     31  C3  <0> d   1      -6.375   4.401  -2.203  0.00  0.00     0.040 A 
ATOM     32  C2  <0> d   1      -7.682   4.329  -2.666  0.00  0.00     0.101 A 
ATOM     33  C7  <0> d   1      -8.747   4.598  -1.806  0.00  0.00     0.102 A 
ATOM     34  C6  <0> d   1      -8.503   4.933  -0.489  0.00  0.00     0.051 A 
BRANCH  32  35
ATOM     35  O1  <0> d   1      -7.925   3.995  -3.959  0.00  0.00    -0.353 OA
ATOM     36  C1  <0> d   1      -6.789   3.731  -4.786  0.00  0.00     0.210 C 
ENDBRANCH  32  35
BRANCH  33  37
ATOM     37  O2  <0> d   1     -10.025   4.526  -2.264  0.00  0.00    -0.353 OA
ATOM     38  C8  <0> d   1     -11.067   4.814  -1.328  0.00  0.00     0.210 C 
ENDBRANCH  33  37
ENDBRANCH   1  29
TORSDOF 6
