REMARK  5 active torsions:
REMARK  status: ('A' for Active; 'I' for Inactive)
REMARK    1  A    between atoms: C6_6  and  C11_13 
REMARK    2  A    between atoms: C11_13  and  N1_14 
REMARK    3  A    between atoms: N2_17  and  C16_20 
REMARK    4  A    between atoms: C16_20  and  C17_21 
REMARK    5  A    between atoms: C18_22  and  C19_23 
ROOT
ATOM      1  N1  <0> d   1      -0.646  -5.279  -1.745  0.00  0.00     0.096 N 
ATOM      2  C12 <0> d   1      -1.194  -6.236  -0.774  0.00  0.00     0.303 C 
ATOM      3  C13 <0> d   1      -2.647  -6.553  -1.137  0.00  0.00     0.303 C 
ATOM      4  N2  <0> d   1      -2.700  -7.101  -2.500  0.00  0.00     0.095 N 
ATOM      5  C14 <0> d   1      -2.153  -6.143  -3.471  0.00  0.00     0.303 C 
ATOM      6  C15 <0> d   1      -0.700  -5.827  -3.108  0.00  0.00     0.303 C 
ENDROOT
BRANCH   1   7
ATOM      7  C11 <0> d   1       0.724  -4.891  -1.387  0.00  0.00     0.312 C 
BRANCH   7   8
ATOM      8  C6  <0> d   1       0.706  -4.116  -0.095  0.00  0.00    -0.011 A 
ATOM      9  C5  <0> d   1       0.432  -2.675  -0.085  0.00  0.00     0.012 A 
ATOM     10  C4  <0> d   1       0.180  -1.981  -1.273  0.00  0.00    -0.048 A 
ATOM     11  C9  <0> d   1       0.424  -1.992   1.143  0.00  0.00     0.091 A 
ATOM     12  C3  <0> d   1      -0.072  -0.638  -1.232  0.00  0.00     0.014 A 
ATOM     13  C25 <0> d   1       0.187  -2.710  -2.592  0.00  0.00     0.049 C 
ATOM     14  C2  <0> d   1      -0.080   0.040  -0.021  0.00  0.00    -0.059 A 
ATOM     15  C1  <0> d   1      -0.360   1.521   0.002  0.00  0.00     0.048 C 
ATOM     16  C10 <0> d   1       0.170  -0.626   1.160  0.00  0.00     0.045 A 
ATOM     17  O2  <0> d   1       0.667  -2.663   2.288  0.00  0.00    -0.275 OA
ATOM     18  C8  <0> d   1       0.919  -3.982   2.287  0.00  0.00     0.288 A 
ATOM     19  C7  <0> d   1       0.942  -4.731   1.091  0.00  0.00     0.092 A 
ATOM     20  O1  <0> d   1       1.133  -4.546   3.345  0.00  0.00    -0.260 OA
ENDBRANCH   7   8
ENDBRANCH   1   7
BRANCH   4  21
ATOM     21  C16 <0> d   1      -4.071  -7.488  -2.858  0.00  0.00     0.300 C 
BRANCH  21  22
ATOM     22  C17 <0> d   1      -4.053  -8.264  -4.149  0.00  0.00     0.004 C 
ATOM     23  C18 <0> d   1      -4.599  -9.470  -4.206  0.00  0.00     0.009 C 
BRANCH  23  24
ATOM     24  C19 <0> d   1      -4.581 -10.231  -5.473  0.00  0.00    -0.036 A 
ATOM     25  C24 <0> d   1      -5.155 -11.502  -5.536  0.00  0.00     0.011 A 
ATOM     26  C23 <0> d   1      -5.141 -12.204  -6.723  0.00  0.00     0.001 A 
ATOM     27  C22 <0> d   1      -4.547 -11.657  -7.847  0.00  0.00     0.000 A 
ATOM     28  C21 <0> d   1      -3.971 -10.400  -7.790  0.00  0.00     0.001 A 
ATOM     29  C20 <0> d   1      -3.985  -9.685  -6.610  0.00  0.00     0.011 A 
ENDBRANCH  23  24
ENDBRANCH  21  22
ENDBRANCH   4  21
TORSDOF 5
