REMARK  4 active torsions:
REMARK  status: ('A' for Active; 'I' for Inactive)
REMARK    1  A    between atoms: O1_2  and  C2_3 
REMARK    2  A    between atoms: C7_8  and  C8_9 
REMARK    3  A    between atoms: C15_17  and  C17_20 
REMARK    4  A    between atoms: C17_20  and  N1_21 
ROOT
ATOM      1  C8  <0> d   1      -1.384   4.659   0.040  0.00  0.00     0.055 C 
ATOM      2  C9  <0> d   1      -0.593   3.588  -0.225  0.00  0.00     0.128 A 
ATOM      3  C10 <0> d   1       0.877   3.579  -0.244  0.00  0.00     0.218 A 
ATOM      4  O2  <0> d   1       1.632   4.511  -0.029  0.00  0.00    -0.284 OA
ATOM      5  C11 <0> d   1       1.234   2.188  -0.581  0.00  0.00     0.051 A 
ATOM      6  C12 <0> d   1       2.452   1.530  -0.752  0.00  0.00     0.021 A 
ATOM      7  C13 <0> d   1       2.470   0.202  -1.071  0.00  0.00     0.041 A 
ATOM      8  C14 <0> d   1       1.275  -0.496  -1.225  0.00  0.00     0.118 A 
ATOM      9  C15 <0> d   1       0.058   0.144  -1.058  0.00  0.00     0.041 A 
ATOM     10  C16 <0> d   1       0.022   1.495  -0.733  0.00  0.00     0.101 A 
ATOM     11  O3  <0> d   1      -1.013   2.337  -0.526  0.00  0.00    -0.305 OA
ATOM     12  O5  <0> d   1       1.303  -1.816  -1.542  0.00  0.00    -0.191 OA
ENDROOT
BRANCH   1  13
ATOM     13  C7  <0> d   1      -2.843   4.534  -0.058  0.00  0.00     0.001 A 
ATOM     14  C2  <0> d   1      -3.647   5.684  -0.144  0.00  0.00     0.078 A 
ATOM     15  C3  <0> d   1      -5.023   5.553  -0.242  0.00  0.00     0.039 A 
ATOM     16  C4  <0> d   1      -5.602   4.299  -0.242  0.00  0.00     0.022 A 
ATOM     17  C5  <0> d   1      -4.815   3.161  -0.151  0.00  0.00     0.011 A 
ATOM     18  C6  <0> d   1      -3.444   3.270  -0.059  0.00  0.00     0.033 A 
ATOM     19 Br1  <0> d   1      -5.626   1.453  -0.152  0.00  0.00    -0.051 Br
BRANCH  14  20
ATOM     20  O1  <0> d   1      -3.077   6.915  -0.138  0.00  0.00    -0.355 OA
ATOM     21  C1  <0> d   1      -3.958   8.037  -0.230  0.00  0.00     0.210 C 
ENDBRANCH  14  20
ENDBRANCH   1  13
BRANCH   9  22
ATOM     22  C17 <0> d   1      -1.228  -0.624  -1.227  0.00  0.00     0.317 C 
BRANCH  22  23
ATOM     23  N1  <0> d   1      -1.660  -0.551  -2.629  0.00  0.00     0.097 N 
ATOM     24  C21 <0> d   1      -2.773  -1.477  -2.886  0.00  0.00     0.299 C 
ATOM     25  C20 <0> d   1      -3.152  -1.412  -4.368  0.00  0.00     0.198 C 
ATOM     26  O4  <0> d   1      -3.479  -0.063  -4.713  0.00  0.00    -0.388 OA
ATOM     27  C19 <0> d   1      -2.417   0.865  -4.476  0.00  0.00     0.198 C 
ATOM     28  C18 <0> d   1      -2.031   0.824  -2.995  0.00  0.00     0.299 C 
ENDBRANCH  22  23
ENDBRANCH   9  22
TORSDOF 4
