REMARK  4 active torsions:
REMARK  status: ('A' for Active; 'I' for Inactive)
REMARK    1  A    between atoms: C3_4  and  C10_11 
REMARK    2  A    between atoms: C16_18  and  O3_30 
REMARK    3  A    between atoms: C17_19  and  C19_22 
REMARK    4  A    between atoms: C19_22  and  N2_23 
ROOT
ATOM      1  C10 <0> d   1      -0.685   6.396   0.040  0.00  0.00     0.055 C 
ATOM      2  C11 <0> d   1      -0.226   7.678   0.042  0.00  0.00     0.128 A 
ATOM      3  C12 <0> d   1      -1.032   8.848   0.049  0.00  0.00     0.218 A 
ATOM      4  O1  <0> d   1      -2.250   8.908   0.055  0.00  0.00    -0.284 OA
ATOM      5  C13 <0> d   1      -0.080   9.972   0.050  0.00  0.00     0.051 A 
ATOM      6  C14 <0> d   1      -0.231  11.359   0.057  0.00  0.00     0.021 A 
ATOM      7  C15 <0> d   1       0.873  12.164   0.050  0.00  0.00     0.038 A 
ATOM      8  C16 <0> d   1       2.148  11.604   0.036  0.00  0.00     0.076 A 
ATOM      9  C17 <0> d   1       2.314  10.229   0.029  0.00  0.00     0.038 A 
ATOM     10  C18 <0> d   1       1.202   9.398   0.036  0.00  0.00     0.101 A 
ATOM     11  O2  <0> d   1       1.075   8.053   0.031  0.00  0.00    -0.305 OA
ENDROOT
BRANCH   1  12
ATOM     12  C3  <0> d   1       0.260   5.281   0.026  0.00  0.00    -0.005 A 
ATOM     13  C2  <0> d   1       1.636   5.364   0.013  0.00  0.00     0.103 A 
ATOM     14  N1  <0> d   1       2.164   4.115   0.003  0.00  0.00    -0.360 N 
ATOM     15  C1  <0> d   1       3.598   3.816  -0.012  0.00  0.00     0.156 C 
ATOM     16  C5  <0> d   1       1.163   3.166   0.007  0.00  0.00     0.045 A 
ATOM     17  C4  <0> d   1      -0.067   3.842   0.022  0.00  0.00     0.002 A 
ATOM     18  C6  <0> d   1       1.175   1.774   0.000  0.00  0.00     0.030 A 
ATOM     19  C9  <0> d   1      -1.260   3.124   0.030  0.00  0.00     0.014 A 
ATOM     20  C8  <0> d   1      -1.227   1.746   0.017  0.00  0.00     0.001 A 
ATOM     21  C7  <0> d   1      -0.013   1.076   0.008  0.00  0.00     0.002 A 
ENDBRANCH   1  12
BRANCH   9  22
ATOM     22  C19 <0> d   1       3.699   9.635   0.013  0.00  0.00     0.317 C 
BRANCH  22  23
ATOM     23  N2  <0> d   1       4.136   9.449  -1.377  0.00  0.00     0.096 N 
ATOM     24  C23 <0> d   1       5.561   9.097  -1.439  0.00  0.00     0.300 C 
ATOM     25  C22 <0> d   1       5.995   8.990  -2.903  0.00  0.00     0.264 C 
ATOM     26  N3  <0> d   1       5.176   7.976  -3.580  0.00  0.00    -0.072 N 
ATOM     27  C21 <0> d   1       3.750   8.327  -3.519  0.00  0.00     0.264 C 
ATOM     28  C24 <0> d   1       5.612   7.789  -4.971  0.00  0.00     0.269 C 
ATOM     29  H26 <0> d   1       5.313   7.020  -3.053  0.00  0.00     0.279 HD
ATOM     30  C20 <0> d   1       3.317   8.434  -2.055  0.00  0.00     0.300 C 
ENDBRANCH  22  23
ENDBRANCH   9  22
BRANCH   8  31
ATOM     31  O3  <0> d   1       3.239  12.413   0.029  0.00  0.00    -0.360 OA
ATOM     32  H25 <0> d   1       4.248  11.976   0.017  0.00  0.00     0.217 HD
ENDBRANCH   8  31
TORSDOF 4
