REMARK  5 active torsions:
REMARK  status: ('A' for Active; 'I' for Inactive)
REMARK    1  A    between atoms: C9_10  and  C10_11 
REMARK    2  A    between atoms: N1_21  and  C19_24 
REMARK    3  A    between atoms: C19_24  and  C20_25 
REMARK    4  A    between atoms: C20_25  and  C21_26 
REMARK    5  A    between atoms: C21_26  and  N2_27 
ROOT
ATOM      1  C1  <0> d   1       0.982   1.399   0.041  0.00  0.00     0.054 C 
ATOM      2  C2  <0> d   1       0.923  -0.107   0.056  0.00  0.00     0.007 A 
ATOM      3  C3  <0> d   1       1.110  -0.818  -1.122  0.00  0.00     0.087 A 
ATOM      4  C4  <0> d   1       1.060  -2.208  -1.120  0.00  0.00     0.005 A 
ATOM      5  C5  <0> d   1       0.823  -2.885   0.046  0.00  0.00     0.030 A 
ATOM      6  C6  <0> d   1       0.633  -2.182   1.235  0.00  0.00     0.052 A 
ATOM      7  C7  <0> d   1       0.689  -0.779   1.248  0.00  0.00     0.099 A 
ATOM      8  O1  <0> d   1       0.485  -0.326   2.504  0.00  0.00    -0.305 OA
ATOM      9  C8  <0> d   1       0.291  -1.340   3.380  0.00  0.00     0.128 A 
ATOM     10  C9  <0> d   1       0.060  -1.217   4.711  0.00  0.00     0.056 C 
ATOM     11  C16 <0> d   1       0.364  -2.600   2.623  0.00  0.00     0.218 A 
ATOM     12  O2  <0> d   1       0.243  -3.735   3.050  0.00  0.00    -0.284 OA
ATOM     13  C17 <0> d   1       1.269  -2.989  -2.393  0.00  0.00     0.316 C 
ATOM     14  N1  <0> d   1       1.093  -2.100  -3.550  0.00  0.00     0.116 N 
ATOM     15  C18 <0> d   1       1.884  -0.872  -3.371  0.00  0.00     0.447 C 
ATOM     16  O3  <0> d   1       1.340  -0.135  -2.274  0.00  0.00    -0.320 OA
ENDROOT
BRANCH  14  17
ATOM     17  C19 <0> d   1       1.457  -2.784  -4.798  0.00  0.00     0.277 C 
BRANCH  17  18
ATOM     18  C20 <0> d   1       1.030  -1.927  -5.992  0.00  0.00     0.058 C 
BRANCH  18  19
ATOM     19  C21 <0> d   1       1.409  -2.638  -7.292  0.00  0.00     0.236 C 
BRANCH  19  20
ATOM     20  N2  <0> d   1       0.999  -1.815  -8.438  0.00  0.00    -0.067 N 
ATOM     21  C25 <0> d   1       1.469  -2.440  -9.683  0.00  0.00     0.261 C 
ATOM     22  C24 <0> d   1       1.041  -1.581 -10.875  0.00  0.00     0.195 C 
ATOM     23  O4  <0> d   1      -0.382  -1.435 -10.864  0.00  0.00    -0.388 OA
ATOM     24  C23 <0> d   1      -0.891  -0.852  -9.661  0.00  0.00     0.195 C 
ATOM     25  C22 <0> d   1      -0.466  -1.710  -8.466  0.00  0.00     0.261 C 
ATOM     26  H28 <0> d   1       1.401  -0.894  -8.352  0.00  0.00     0.280 HD
ENDBRANCH  19  20
ENDBRANCH  18  19
ENDBRANCH  17  18
ENDBRANCH  14  17
BRANCH  10  27
ATOM     27  C10 <0> d   1       0.160   0.099   5.355  0.00  0.00     0.005 A 
ATOM     28  C15 <0> d   1       0.271   0.195   6.749  0.00  0.00     0.126 A 
ATOM     29  C14 <0> d   1       0.371   1.438   7.345  0.00  0.00     0.043 A 
ATOM     30  F1  <0> d   1       0.285  -0.923   7.507  0.00  0.00    -0.205 F 
ATOM     31  C13 <0> d   1       0.350   2.583   6.570  0.00  0.00     0.003 A 
ATOM     32  C12 <0> d   1       0.235   2.496   5.193  0.00  0.00     0.001 A 
ATOM     33  C11 <0> d   1       0.141   1.265   4.581  0.00  0.00     0.014 A 
ENDBRANCH  10  27
TORSDOF 5
