REMARK  7 active torsions:
REMARK  status: ('A' for Active; 'I' for Inactive)
REMARK    1  A    between atoms: C9_10  and  C10_11 
REMARK    2  A    between atoms: C14_15  and  O3_19 
REMARK    3  A    between atoms: C15_16  and  O2_17 
REMARK    4  A    between atoms: N1_24  and  C21_27 
REMARK    5  A    between atoms: C21_27  and  C22_28 
REMARK    6  A    between atoms: C22_28  and  C23_29 
REMARK    7  A    between atoms: C23_29  and  N2_30 
ROOT
ATOM      1  C1  <0> d   1       0.987   1.398   0.042  0.00  0.00     0.054 C 
ATOM      2  C2  <0> d   1       0.927  -0.107   0.056  0.00  0.00     0.007 A 
ATOM      3  C3  <0> d   1       1.114  -0.819  -1.121  0.00  0.00     0.087 A 
ATOM      4  C4  <0> d   1       1.063  -2.209  -1.119  0.00  0.00     0.005 A 
ATOM      5  C5  <0> d   1       0.824  -2.885   0.046  0.00  0.00     0.030 A 
ATOM      6  C6  <0> d   1       0.634  -2.182   1.235  0.00  0.00     0.052 A 
ATOM      7  C7  <0> d   1       0.691  -0.779   1.248  0.00  0.00     0.099 A 
ATOM      8  O1  <0> d   1       0.487  -0.327   2.505  0.00  0.00    -0.305 OA
ATOM      9  C8  <0> d   1       0.292  -1.341   3.379  0.00  0.00     0.128 A 
ATOM     10  C9  <0> d   1       0.059  -1.218   4.712  0.00  0.00     0.055 C 
ATOM     11  C18 <0> d   1       0.365  -2.600   2.623  0.00  0.00     0.218 A 
ATOM     12  O4  <0> d   1       0.242  -3.735   3.050  0.00  0.00    -0.284 OA
ATOM     13  C19 <0> d   1       1.272  -2.989  -2.392  0.00  0.00     0.316 C 
ATOM     14  N1  <0> d   1       1.098  -2.100  -3.549  0.00  0.00     0.116 N 
ATOM     15  C20 <0> d   1       1.889  -0.872  -3.370  0.00  0.00     0.447 C 
ATOM     16  O5  <0> d   1       1.345  -0.135  -2.273  0.00  0.00    -0.320 OA
ENDROOT
BRANCH  10  17
ATOM     17  C10 <0> d   1       0.159   0.096   5.356  0.00  0.00     0.003 A 
ATOM     18  C15 <0> d   1       0.270   0.192   6.751  0.00  0.00     0.111 A 
ATOM     19  C14 <0> d   1       0.369   1.444   7.349  0.00  0.00     0.102 A 
ATOM     20  C13 <0> d   1       0.348   2.588   6.568  0.00  0.00     0.040 A 
ATOM     21  C12 <0> d   1       0.233   2.495   5.190  0.00  0.00     0.004 A 
ATOM     22  C11 <0> d   1       0.140   1.264   4.581  0.00  0.00     0.014 A 
BRANCH  18  23
ATOM     23  O2  <0> d   1       0.284  -0.931   7.514  0.00  0.00    -0.352 OA
ATOM     24  C16 <0> d   1       1.560  -1.517   7.781  0.00  0.00     0.210 C 
ENDBRANCH  18  23
BRANCH  19  25
ATOM     25  O3  <0> d   1       0.482   1.545   8.700  0.00  0.00    -0.353 OA
ATOM     26  C17 <0> d   1       0.574   2.862   9.247  0.00  0.00     0.210 C 
ENDBRANCH  19  25
ENDBRANCH  10  17
BRANCH  14  27
ATOM     27  C21 <0> d   1       1.462  -2.784  -4.798  0.00  0.00     0.277 C 
BRANCH  27  28
ATOM     28  C22 <0> d   1       1.036  -1.926  -5.991  0.00  0.00     0.058 C 
BRANCH  28  29
ATOM     29  C23 <0> d   1       1.415  -2.638  -7.292  0.00  0.00     0.236 C 
BRANCH  29  30
ATOM     30  N2  <0> d   1       1.006  -1.815  -8.437  0.00  0.00    -0.067 N 
ATOM     31  C27 <0> d   1       1.476  -2.440  -9.682  0.00  0.00     0.261 C 
ATOM     32  C26 <0> d   1       1.049  -1.580 -10.874  0.00  0.00     0.195 C 
ATOM     33  O6  <0> d   1      -0.374  -1.433 -10.864  0.00  0.00    -0.388 OA
ATOM     34  C25 <0> d   1      -0.882  -0.850  -9.661  0.00  0.00     0.195 C 
ATOM     35  C24 <0> d   1      -0.459  -1.709  -8.467  0.00  0.00     0.261 C 
ATOM     36  H33 <0> d   1       1.409  -0.894  -8.351  0.00  0.00     0.280 HD
ENDBRANCH  29  30
ENDBRANCH  28  29
ENDBRANCH  27  28
ENDBRANCH  14  27
TORSDOF 7
