REMARK  6 active torsions:
REMARK  status: ('A' for Active; 'I' for Inactive)
REMARK    1  A    between atoms: C6_6  and  O5_31 
REMARK    2  A    between atoms: C7_7  and  C19_23 
REMARK    3  A    between atoms: C10_12  and  C11_13 
REMARK    4  A    between atoms: C14_16  and  O4_21 
REMARK    5  A    between atoms: C16_18  and  O3_19 
REMARK    6  A    between atoms: C19_23  and  N1_24 
ROOT
ATOM      1  C1  <0> d   1      -2.482   5.800   0.057  0.00  0.00     0.050 C 
ATOM      2  C2  <0> d   1      -2.463   4.293   0.048  0.00  0.00    -0.032 A 
ATOM      3  C3  <0> d   1      -1.233   3.588   0.033  0.00  0.00     0.006 A 
ATOM      4  C4  <0> d   1      -0.018   4.289   0.026  0.00  0.00     0.017 A 
ATOM      5  C5  <0> d   1       1.163   3.606   0.011  0.00  0.00     0.038 A 
ATOM      6  C6  <0> d   1       1.171   2.212   0.003  0.00  0.00     0.076 A 
ATOM      7  C7  <0> d   1      -0.018   1.503   0.010  0.00  0.00     0.035 A 
ATOM      8  C8  <0> d   1      -1.229   2.181   0.020  0.00  0.00     0.101 A 
ATOM      9  O1  <0> d   1      -2.390   1.489   0.032  0.00  0.00    -0.273 OA
ATOM     10  C9  <0> d   1      -3.576   2.119   0.046  0.00  0.00     0.300 A 
ATOM     11  O2  <0> d   1      -4.607   1.471   0.052  0.00  0.00    -0.259 OA
ATOM     12  C10 <0> d   1      -3.633   3.583   0.055  0.00  0.00     0.059 A 
ENDROOT
BRANCH  12  13
ATOM     13  C11 <0> d   1      -4.938   4.284   0.071  0.00  0.00     0.014 A 
ATOM     14  C16 <0> d   1      -5.548   4.604   1.289  0.00  0.00     0.082 A 
ATOM     15  C15 <0> d   1      -6.765   5.263   1.297  0.00  0.00     0.074 A 
ATOM     16  C14 <0> d   1      -7.382   5.596   0.101  0.00  0.00     0.070 A 
ATOM     17  C13 <0> d   1      -6.780   5.274  -1.109  0.00  0.00     0.038 A 
ATOM     18  C12 <0> d   1      -5.565   4.622  -1.127  0.00  0.00     0.018 A 
BRANCH  14  19
ATOM     19  O3  <0> d   1      -4.945   4.272   2.461  0.00  0.00    -0.355 OA
ATOM     20  C17 <0> d   1      -5.626   4.630   3.665  0.00  0.00     0.210 C 
ENDBRANCH  14  19
BRANCH  16  21
ATOM     21  O4  <0> d   1      -8.579   6.239   0.112  0.00  0.00    -0.356 OA
ATOM     22  C18 <0> d   1      -9.159   6.553  -1.156  0.00  0.00     0.210 C 
ENDBRANCH  16  21
ENDBRANCH  12  13
BRANCH   7  23
ATOM     23  C19 <0> d   1       0.002  -0.004   0.002  0.00  0.00     0.279 C 
BRANCH  23  24
ATOM     24  N1  <0> d   1       0.022  -0.501   1.384  0.00  0.00    -0.064 N 
ATOM     25  C23 <0> d   1      -0.196  -1.954   1.425  0.00  0.00     0.265 C 
ATOM     26  C22 <0> d   1      -0.248  -2.419   2.882  0.00  0.00     0.299 C 
ATOM     27  N2  <0> d   1       1.009  -2.059   3.553  0.00  0.00     0.087 N 
ATOM     28  C21 <0> d   1       1.227  -0.606   3.513  0.00  0.00     0.299 C 
ATOM     29  C24 <0> d   1       1.029  -2.556   4.935  0.00  0.00     0.310 C 
ATOM     30  C20 <0> d   1       1.279  -0.141   2.055  0.00  0.00     0.265 C 
ATOM     31  H29 <0> d   1      -0.804  -0.018   1.927  0.00  0.00     0.280 HD
ENDBRANCH  23  24
ENDBRANCH   7  23
BRANCH   6  32
ATOM     32  O5  <0> d   1       2.353   1.545  -0.012  0.00  0.00    -0.360 OA
ATOM     33  H28 <0> d   1       2.364   0.445  -0.019  0.00  0.00     0.217 HD
ENDBRANCH   6  32
TORSDOF 6
