REMARK  8 active torsions:
REMARK  status: ('A' for Active; 'I' for Inactive)
REMARK    1  A    between atoms: C2_2  and  C3_3 
REMARK    2  A    between atoms: C3_3  and  O1_4 
REMARK    3  A    between atoms: O1_4  and  C4_5 
REMARK    4  A    between atoms: C4_5  and  C5_7 
REMARK    5  A    between atoms: C8_10  and  O3_13 
REMARK    6  A    between atoms: O3_13  and  C11_14 
REMARK    7  A    between atoms: C13_19  and  C14_20 
REMARK    8  A    between atoms: C17_23  and  O5_27 
ROOT
ATOM      1  C11 <0> d   1       2.176  -8.676  -3.674  0.00  0.00     0.131 A 
ATOM      2  C12 <0> d   1       1.590  -9.009  -4.849  0.00  0.00     0.060 A 
ATOM      3  N1  <0> d   1       2.547  -9.539  -5.655  0.00  0.00    -0.279 N 
ATOM      4  N2  <0> d   1       3.759  -9.531  -4.954  0.00  0.00    -0.171 NA
ATOM      5  H1  <0> d   1       2.413  -9.866  -6.559  0.00  0.00     0.189 HD
ATOM      6  C13 <0> d   1       3.544  -9.008  -3.765  0.00  0.00     0.126 A 
ATOM      7  C20 <0> d   1       0.135  -8.826  -5.199  0.00  0.00     0.073 C 
ENDROOT
BRANCH   1   8
ATOM      8  O3  <0> d   1       1.556  -8.115  -2.599  0.00  0.00    -0.306 OA
BRANCH   8   9
ATOM      9  C8  <0> d   1       1.502  -6.761  -2.530  0.00  0.00     0.076 A 
ATOM     10  C7  <0> d   1       0.879  -6.146  -1.450  0.00  0.00     0.038 A 
ATOM     11  C6  <0> d   1       0.824  -4.772  -1.376  0.00  0.00     0.020 A 
ATOM     12  C5  <0> d   1       1.394  -3.996  -2.389  0.00  0.00     0.039 A 
ATOM     13  C10 <0> d   1       2.015  -4.618  -3.476  0.00  0.00     0.020 A 
ATOM     14  C9  <0> d   1       2.071  -5.992  -3.540  0.00  0.00     0.038 A 
BRANCH  12  15
ATOM     15  C4  <0> d   1       1.336  -2.524  -2.313  0.00  0.00     0.293 C 
ATOM     16  O2  <0> d   1       1.828  -1.851  -3.197  0.00  0.00    -0.259 OA
BRANCH  15  17
ATOM     17  O1  <0> d   1       0.738  -1.926  -1.265  0.00  0.00    -0.318 OA
BRANCH  17  18
ATOM     18  C3  <0> d   1       0.718  -0.497  -1.257  0.00  0.00     0.178 C 
BRANCH  18  19
ATOM     19  C2  <0> d   1       0.002  -0.004   0.002  0.00  0.00     0.022 C 
ATOM     20  C1  <0> d   1      -0.019   1.526   0.010  0.00  0.00     0.007 C 
ENDBRANCH  18  19
ENDBRANCH  17  18
ENDBRANCH  15  17
ENDBRANCH  12  15
ENDBRANCH   8   9
ENDBRANCH   1   8
BRANCH   6  21
ATOM     21  C14 <0> d   1       4.562  -8.807  -2.705  0.00  0.00     0.034 A 
ATOM     22  C19 <0> d   1       5.890  -9.183  -2.928  0.00  0.00     0.122 A 
ATOM     23  C18 <0> d   1       6.837  -8.988  -1.936  0.00  0.00     0.077 A 
ATOM     24  O4  <0> d   1       6.252  -9.733  -4.116  0.00  0.00    -0.191 OA
ATOM     25  C17 <0> d   1       6.464  -8.431  -0.722  0.00  0.00     0.068 A 
ATOM     26  C16 <0> d   1       5.144  -8.063  -0.498  0.00  0.00     0.037 A 
ATOM     27  C15 <0> d   1       4.196  -8.248  -1.482  0.00  0.00     0.020 A 
BRANCH  25  28
ATOM     28  O5  <0> d   1       7.394  -8.246   0.252  0.00  0.00    -0.361 OA
ATOM     29  H16 <0> d   1       7.491  -8.998   0.851  0.00  0.00     0.217 HD
ENDBRANCH  25  28
ENDBRANCH   6  21
TORSDOF 8
