REMARK  5 active torsions:
REMARK  status: ('A' for Active; 'I' for Inactive)
REMARK    1  A    between atoms: N2_5  and  C6_8 
REMARK    2  A    between atoms: C6_8  and  C7_9 
REMARK    3  A    between atoms: C8_10  and  O5_29 
REMARK    4  A    between atoms: C14_17  and  C15_18 
REMARK    5  A    between atoms: C18_21  and  N3_24 
ROOT
ATOM      1  C7  <0> d   1       1.599   3.243  -0.089  0.00  0.00     0.038 A 
ATOM      2  C8  <0> d   1       0.563   4.164  -0.091  0.00  0.00     0.076 A 
ATOM      3  C9  <0> d   1      -0.762   3.740  -0.071  0.00  0.00     0.038 A 
ATOM      4  C10 <0> d   1      -1.055   2.405  -0.043  0.00  0.00     0.021 A 
ATOM      5  C11 <0> d   1      -0.023   1.467  -0.047  0.00  0.00     0.051 A 
ATOM      6  C12 <0> d   1       1.318   1.883  -0.067  0.00  0.00     0.101 A 
ATOM      7  O1  <0> d   1       2.131   0.804  -0.060  0.00  0.00    -0.305 OA
ATOM      8  C13 <0> d   1       1.430  -0.354  -0.037  0.00  0.00     0.127 A 
ATOM      9  C14 <0> d   1       1.951  -1.606  -0.026  0.00  0.00     0.053 C 
ATOM     10  C21 <0> d   1      -0.001  -0.007  -0.026  0.00  0.00     0.218 A 
ATOM     11  O4  <0> d   1      -0.953  -0.767  -0.005  0.00  0.00    -0.284 OA
ENDROOT
BRANCH   9  12
ATOM     12  C15 <0> d   1       3.403  -1.799  -0.151  0.00  0.00    -0.033 A 
ATOM     13  C20 <0> d   1       4.262  -0.694  -0.154  0.00  0.00     0.014 A 
ATOM     14  C19 <0> d   1       5.622  -0.884  -0.272  0.00  0.00     0.037 A 
ATOM     15  C18 <0> d   1       6.139  -2.163  -0.389  0.00  0.00     0.102 A 
ATOM     16  C17 <0> d   1       5.296  -3.261  -0.387  0.00  0.00     0.037 A 
ATOM     17  C16 <0> d   1       3.934  -3.089  -0.264  0.00  0.00     0.014 A 
BRANCH  15  18
ATOM     18  N3  <0> d   1       7.601  -2.357  -0.515  0.00  0.00    -0.116 N 
ATOM     19  O2  <0> d   1       8.345  -1.393  -0.517  0.00  0.00    -0.532 OA
ATOM     20  O3  <0> d   1       8.059  -3.481  -0.618  0.00  0.00    -0.532 OA
ENDBRANCH  15  18
ENDBRANCH   9  12
BRANCH   1  21
ATOM     21  C6  <0> d   1       3.029   3.717  -0.111  0.00  0.00     0.317 C 
BRANCH  21  22
ATOM     22  N2  <0> d   1       3.479   3.852  -1.502  0.00  0.00     0.096 N 
ATOM     23  C3  <0> d   1       4.779   4.534  -1.572  0.00  0.00     0.300 C 
ATOM     24  C2  <0> d   1       5.174   4.725  -3.038  0.00  0.00     0.264 C 
ATOM     25  N1  <0> d   1       5.233   3.415  -3.702  0.00  0.00    -0.072 N 
ATOM     26  C1  <0> d   1       5.683   3.550  -5.094  0.00  0.00     0.269 C 
ATOM     27  C5  <0> d   1       3.933   2.733  -3.632  0.00  0.00     0.264 C 
ATOM     28  H22 <0> d   1       5.969   2.796  -3.168  0.00  0.00     0.279 HD
ATOM     29  C4  <0> d   1       3.538   2.542  -2.166  0.00  0.00     0.300 C 
ENDBRANCH  21  22
ENDBRANCH   1  21
BRANCH   2  30
ATOM     30  O5  <0> d   1       0.844   5.492  -0.113  0.00  0.00    -0.360 OA
ATOM     31  H21 <0> d   1       0.026   6.227  -0.115  0.00  0.00     0.217 HD
ENDBRANCH   2  30
TORSDOF 5
