REMARK  6 active torsions:
REMARK  status: ('A' for Active; 'I' for Inactive)
REMARK    1  A    between atoms: C4_4  and  C7_7 
REMARK    2  A    between atoms: C10_10  and  C13_13 
REMARK    3  A    between atoms: C19_20  and  O3_37 
REMARK    4  A    between atoms: C20_21  and  C22_24 
REMARK    5  A    between atoms: C22_24  and  N1_25 
REMARK    6  A    between atoms: N2_28  and  C27_31 
ROOT
ATOM      1  C13 <0> d   1       7.322  -2.767  -0.184  0.00  0.00     0.053 C 
ATOM      2  C14 <0> d   1       7.360  -4.120  -0.079  0.00  0.00     0.127 A 
ATOM      3  C15 <0> d   1       6.200  -5.024  -0.073  0.00  0.00     0.218 A 
ATOM      4  O1  <0> d   1       5.021  -4.727  -0.159  0.00  0.00    -0.284 OA
ATOM      5  C16 <0> d   1       6.783  -6.372   0.061  0.00  0.00     0.051 A 
ATOM      6  C17 <0> d   1       6.227  -7.650   0.129  0.00  0.00     0.021 A 
ATOM      7  C18 <0> d   1       7.040  -8.740   0.256  0.00  0.00     0.038 A 
ATOM      8  C19 <0> d   1       8.422  -8.579   0.318  0.00  0.00     0.076 A 
ATOM      9  C20 <0> d   1       8.988  -7.316   0.252  0.00  0.00     0.036 A 
ATOM     10  C21 <0> d   1       8.175  -6.197   0.122  0.00  0.00     0.101 A 
ATOM     11  O2  <0> d   1       8.473  -4.882   0.033  0.00  0.00    -0.305 OA
ENDROOT
BRANCH   9  12
ATOM     12  C22 <0> d   1      10.484  -7.156   0.321  0.00  0.00     0.279 C 
BRANCH  12  13
ATOM     13  N1  <0> d   1      11.046  -7.210  -1.035  0.00  0.00    -0.064 N 
ATOM     14  C26 <0> d   1      12.512  -7.175  -0.958  0.00  0.00     0.255 C 
ATOM     15  C25 <0> d   1      13.101  -7.346  -2.362  0.00  0.00     0.152 C 
ATOM     16  N2  <0> d   1      12.514  -6.324  -3.242  0.00  0.00    -0.364 N 
ATOM     17  C24 <0> d   1      11.050  -6.179  -3.257  0.00  0.00     0.152 C 
ATOM     18  C23 <0> d   1      10.558  -6.063  -1.811  0.00  0.00     0.255 C 
ATOM     19  H29 <0> d   1      10.755  -8.065  -1.485  0.00  0.00     0.280 HD
BRANCH  16  20
ATOM     20  C27 <0> d   1      13.320  -5.516  -4.035  0.00  0.00     0.102 A 
ATOM     21  N3  <0> d   1      12.779  -4.524  -4.725  0.00  0.00    -0.352 N 
ATOM     22  C31 <0> d   1      13.509  -3.730  -5.486  0.00  0.00     0.089 A 
ATOM     23  H28 <0> d   1      11.822  -4.374  -4.666  0.00  0.00     0.166 HD
ATOM     24  C30 <0> d   1      14.872  -3.916  -5.599  0.00  0.00     0.017 A 
ATOM     25  C29 <0> d   1      15.479  -4.949  -4.896  0.00  0.00     0.005 A 
ATOM     26  C28 <0> d   1      14.688  -5.761  -4.103  0.00  0.00     0.048 A 
ENDBRANCH  16  20
ENDBRANCH  12  13
ENDBRANCH   9  12
BRANCH   8  27
ATOM     27  O3  <0> d   1       9.221  -9.668   0.445  0.00  0.00    -0.360 OA
ATOM     28  H27 <0> d   1       9.501 -10.052  -0.397  0.00  0.00     0.217 HD
ENDBRANCH   8  27
BRANCH   1  29
ATOM     29  C10 <0> d   1       6.036  -2.062  -0.121  0.00  0.00    -0.033 A 
ATOM     30  C9  <0> d   1       5.032  -2.510   0.748  0.00  0.00     0.012 A 
ATOM     31  C8  <0> d   1       3.837  -1.852   0.806  0.00  0.00     0.013 A 
ATOM     32  C7  <0> d   1       3.614  -0.734   0.000  0.00  0.00    -0.026 A 
ATOM     33  C12 <0> d   1       4.611  -0.289  -0.871  0.00  0.00     0.013 A 
ATOM     34  C11 <0> d   1       5.810  -0.940  -0.928  0.00  0.00     0.012 A 
BRANCH  32  35
ATOM     35  C4  <0> d   1       2.316  -0.021   0.065  0.00  0.00    -0.026 A 
ATOM     36  C3  <0> d   1       1.319  -0.463   0.934  0.00  0.00     0.012 A 
ATOM     37  C2  <0> d   1       0.112   0.205   0.990  0.00  0.00     0.001 A 
ATOM     38  C1  <0> d   1      -0.108   1.310   0.187  0.00  0.00     0.000 A 
ATOM     39  C6  <0> d   1       0.878   1.752  -0.676  0.00  0.00     0.001 A 
ATOM     40  C5  <0> d   1       2.088   1.093  -0.741  0.00  0.00     0.012 A 
ENDBRANCH  32  35
ENDBRANCH   1  29
TORSDOF 6
