REMARK  3 active torsions:
REMARK  status: ('A' for Active; 'I' for Inactive)
REMARK    1  A    between atoms: C8_8  and  C11_13 
REMARK    2  A    between atoms: C11_13  and  N1_14 
REMARK    3  A    between atoms: N2_17  and  C16_20 
ROOT
ATOM      1  C11 <0> d   1      -0.042  -1.826   3.884  0.00  0.00     0.312 C 
ENDROOT
BRANCH   1   2
ATOM      2  C8  <0> d   1      -0.175  -2.666   2.639  0.00  0.00    -0.011 A 
ATOM      3  C6  <0> d   1      -0.120  -2.054   1.308  0.00  0.00     0.007 A 
ATOM      4  C5  <0> d   1      -0.248  -2.876   0.175  0.00  0.00     0.090 A 
ATOM      5  C7  <0> d   1       0.061  -0.676   1.155  0.00  0.00     0.021 A 
ATOM      6  C4  <0> d   1      -0.197  -2.304  -1.090  0.00  0.00     0.039 A 
ATOM      7  O2  <0> d   1      -0.418  -4.207   0.325  0.00  0.00    -0.275 OA
ATOM      8  C3  <0> d   1      -0.022  -0.942  -1.220  0.00  0.00     0.009 A 
ATOM      9  C2  <0> d   1       0.103  -0.134  -0.099  0.00  0.00    -0.061 A 
ATOM     10  C1  <0> d   1       0.294   1.351  -0.265  0.00  0.00     0.048 C 
ATOM     11  C10 <0> d   1      -0.469  -4.774   1.540  0.00  0.00     0.288 A 
ATOM     12  C9  <0> d   1      -0.348  -4.010   2.720  0.00  0.00     0.092 A 
ATOM     13  O1  <0> d   1      -0.624  -5.979   1.626  0.00  0.00    -0.260 OA
ENDBRANCH   1   2
BRANCH   1  14
ATOM     14  N1  <0> d   1       1.381  -1.633   4.194  0.00  0.00     0.095 N 
ATOM     15  C15 <0> d   1       1.556  -0.631   5.254  0.00  0.00     0.292 C 
ATOM     16  C14 <0> d   1       3.049  -0.326   5.422  0.00  0.00     0.154 C 
ATOM     17  N2  <0> d   1       3.763  -1.593   5.640  0.00  0.00    -0.362 N 
ATOM     18  C13 <0> d   1       3.530  -2.694   4.693  0.00  0.00     0.154 C 
ATOM     19  C12 <0> d   1       2.019  -2.906   4.554  0.00  0.00     0.292 C 
BRANCH  17  20
ATOM     20  C16 <0> d   1       4.634  -1.746   6.712  0.00  0.00     0.125 A 
ATOM     21  N3  <0> d   1       4.675  -0.823   7.660  0.00  0.00    -0.244 NA
ATOM     22  C20 <0> d   1       5.484  -0.933   8.697  0.00  0.00     0.119 A 
ATOM     23  C19 <0> d   1       6.331  -2.015   8.824  0.00  0.00     0.019 A 
ATOM     24  C18 <0> d   1       6.323  -3.003   7.847  0.00  0.00     0.005 A 
ATOM     25  C17 <0> d   1       5.460  -2.864   6.775  0.00  0.00     0.050 A 
ENDBRANCH  17  20
ENDBRANCH   1  14
TORSDOF 3
