REMARK  7 active torsions:
REMARK  status: ('A' for Active; 'I' for Inactive)
REMARK    1  A    between atoms: C6_6  and  O4_30 
REMARK    2  A    between atoms: C7_7  and  C17_20 
REMARK    3  A    between atoms: C10_12  and  C11_13 
REMARK    4  A    between atoms: C17_20  and  N1_21 
REMARK    5  A    between atoms: N2_24  and  C22_27 
REMARK    6  A    between atoms: C22_27  and  C23_28 
REMARK    7  A    between atoms: C23_28  and  O3_29 
ROOT
ATOM      1  C1  <0> d   1      -0.018   1.503   0.010  0.00  0.00     0.050 C 
ATOM      2  C2  <0> d   1       0.002  -0.004   0.002  0.00  0.00    -0.032 C 
ATOM      3  C3  <0> d   1      -1.206  -0.749   0.004  0.00  0.00     0.006 A 
ATOM      4  C4  <0> d   1      -2.438  -0.106  -0.189  0.00  0.00     0.017 A 
ATOM      5  C5  <0> d   1      -3.588  -0.839  -0.225  0.00  0.00     0.038 A 
ATOM      6  C6  <0> d   1      -3.550  -2.223  -0.064  0.00  0.00     0.076 A 
ATOM      7  C7  <0> d   1      -2.345  -2.873   0.146  0.00  0.00     0.038 A 
ATOM      8  C8  <0> d   1      -1.168  -2.143   0.192  0.00  0.00     0.101 A 
ATOM      9  O1  <0> d   1       0.014  -2.760   0.438  0.00  0.00    -0.273 OA
ATOM     10  C9  <0> d   1       1.125  -2.162  -0.050  0.00  0.00     0.300 C 
ATOM     11  O2  <0> d   1       2.042  -2.819  -0.510  0.00  0.00    -0.259 OA
ATOM     12  C10 <0> d   1       1.190  -0.693  -0.013  0.00  0.00     0.057 C 
ENDROOT
BRANCH   7  13
ATOM     13  C17 <0> d   1      -2.314  -4.370   0.324  0.00  0.00     0.317 C 
BRANCH  13  14
ATOM     14  N1  <0> d   1      -2.151  -5.015  -0.986  0.00  0.00     0.096 N 
ATOM     15  C21 <0> d   1      -1.879  -6.451  -0.836  0.00  0.00     0.303 C 
ATOM     16  C20 <0> d   1      -1.638  -7.069  -2.215  0.00  0.00     0.302 C 
ATOM     17  N2  <0> d   1      -2.817  -6.845  -3.062  0.00  0.00     0.093 N 
ATOM     18  C19 <0> d   1      -3.089  -5.409  -3.213  0.00  0.00     0.302 C 
ATOM     19  C18 <0> d   1      -3.330  -4.791  -1.834  0.00  0.00     0.303 C 
BRANCH  17  20
ATOM     20  C22 <0> d   1      -2.655  -7.490  -4.372  0.00  0.00     0.298 C 
BRANCH  20  21
ATOM     21  C23 <0> d   1      -2.623  -9.009  -4.192  0.00  0.00     0.194 C 
BRANCH  21  22
ATOM     22  O3  <0> d   1      -3.889  -9.457  -3.705  0.00  0.00    -0.399 OA
ATOM     23  H24 <0> d   1      -3.942 -10.413  -3.567  0.00  0.00     0.209 HD
ENDBRANCH  21  22
ENDBRANCH  20  21
ENDBRANCH  17  20
ENDBRANCH  13  14
ENDBRANCH   7  13
BRANCH   6  24
ATOM     24  O4  <0> d   1      -4.703  -2.939  -0.113  0.00  0.00    -0.360 OA
ATOM     25  H25 <0> d   1      -4.938  -3.245  -1.000  0.00  0.00     0.217 HD
ENDBRANCH   6  24
BRANCH  12  26
ATOM     26  C11 <0> d   1       2.490   0.018   0.012  0.00  0.00    -0.019 A 
ATOM     27  C16 <0> d   1       3.344  -0.124   1.105  0.00  0.00     0.014 A 
ATOM     28  C15 <0> d   1       4.556   0.535   1.121  0.00  0.00     0.024 A 
ATOM     29  C14 <0> d   1       4.919   1.347   0.059  0.00  0.00     0.034 A 
ATOM     30  C13 <0> d   1       4.072   1.497  -1.026  0.00  0.00     0.024 A 
ATOM     31 Cl1  <0> d   1       6.442   2.180   0.089  0.00  0.00    -0.084 Cl
ATOM     32  C12 <0> d   1       2.861   0.837  -1.054  0.00  0.00     0.014 A 
ENDBRANCH  12  26
TORSDOF 7
