REMARK  9 active torsions:
REMARK  status: ('A' for Active; 'I' for Inactive)
REMARK    1  A    between atoms: C3_3  and  C23_30 
REMARK    2  A    between atoms: C4_4  and  C5_8 
REMARK    3  A    between atoms: C8_11  and  O2_15 
REMARK    4  A    between atoms: C10_13  and  O1_14 
REMARK    5  A    between atoms: O2_15  and  C11_16 
REMARK    6  A    between atoms: C11_16  and  C12_17 
REMARK    7  A    between atoms: C12_17  and  N3_18 
REMARK    8  A    between atoms: N4_21  and  C17_24 
REMARK    9  A    between atoms: C26_33  and  O3_36 
ROOT
ATOM      1  C5  <0> d   1       0.791  -3.729  -1.577  0.00  0.00     0.029 A 
ATOM      2  C6  <0> d   1       0.706  -3.149  -2.841  0.00  0.00     0.019 A 
ATOM      3  C7  <0> d   1       0.600  -3.948  -3.961  0.00  0.00     0.038 A 
ATOM      4  C8  <0> d   1       0.578  -5.330  -3.832  0.00  0.00     0.071 A 
ATOM      5  C9  <0> d   1       0.662  -5.916  -2.578  0.00  0.00     0.074 A 
ATOM      6  C10 <0> d   1       0.774  -5.122  -1.449  0.00  0.00     0.081 A 
ENDROOT
BRANCH   1   7
ATOM      7  C4  <0> d   1       0.906  -2.873  -0.372  0.00  0.00     0.103 A 
ATOM      8  C3  <0> d   1       0.136  -1.715  -0.095  0.00  0.00     0.029 A 
ATOM      9  C2  <0> d   1       0.552  -1.226   1.107  0.00  0.00     0.037 A 
ATOM     10  C1  <0> d   1       0.013  -0.002   1.801  0.00  0.00     0.070 C 
ATOM     11  N2  <0> d   1       1.537  -2.028   1.562  0.00  0.00    -0.281 N 
ATOM     12  N1  <0> d   1       1.739  -3.052   0.629  0.00  0.00    -0.173 NA
ATOM     13  H1  <0> d   1       2.021  -1.915   2.395  0.00  0.00     0.189 HD
BRANCH   8  14
ATOM     14  C23 <0> d   1      -0.928  -1.142  -0.955  0.00  0.00    -0.021 A 
ATOM     15  C28 <0> d   1      -0.739   0.095  -1.570  0.00  0.00     0.015 A 
ATOM     16  C27 <0> d   1      -1.728   0.622  -2.374  0.00  0.00     0.037 A 
ATOM     17  C26 <0> d   1      -2.915  -0.072  -2.561  0.00  0.00     0.068 A 
ATOM     18  C25 <0> d   1      -3.110  -1.300  -1.946  0.00  0.00     0.037 A 
ATOM     19  C24 <0> d   1      -2.122  -1.836  -1.145  0.00  0.00     0.015 A 
BRANCH  17  20
ATOM     20  O3  <0> d   1      -3.890   0.453  -3.350  0.00  0.00    -0.356 OA
ATOM     21  C29 <0> d   1      -3.624   1.721  -3.953  0.00  0.00     0.210 C 
ENDBRANCH  17  20
ENDBRANCH   8  14
ENDBRANCH   1   7
BRANCH   6  22
ATOM     22  O1  <0> d   1       0.863  -5.694  -0.220  0.00  0.00    -0.360 OA
ATOM     23  H8  <0> d   1       0.008  -5.842   0.207  0.00  0.00     0.217 HD
ENDBRANCH   6  22
BRANCH   4  24
ATOM     24  O2  <0> d   1       0.474  -6.112  -4.939  0.00  0.00    -0.349 OA
BRANCH  24  25
ATOM     25  C11 <0> d   1       0.391  -5.444  -6.199  0.00  0.00     0.206 C 
BRANCH  25  26
ATOM     26  C12 <0> d   1       0.279  -6.481  -7.319  0.00  0.00     0.299 C 
BRANCH  26  27
ATOM     27  N3  <0> d   1      -0.984  -7.217  -7.181  0.00  0.00     0.093 N 
ATOM     28  C16 <0> d   1      -2.119  -6.407  -7.642  0.00  0.00     0.292 C 
ATOM     29  C15 <0> d   1      -3.428  -7.134  -7.315  0.00  0.00     0.153 C 
ATOM     30  N4  <0> d   1      -3.362  -8.491  -7.880  0.00  0.00    -0.378 N 
ATOM     31  C14 <0> d   1      -2.184  -9.316  -7.572  0.00  0.00     0.153 C 
ATOM     32  C13 <0> d   1      -0.924  -8.503  -7.889  0.00  0.00     0.292 C 
BRANCH  30  33
ATOM     33  C17 <0> d   1      -4.391  -8.983  -8.686  0.00  0.00     0.030 A 
ATOM     34  C22 <0> d   1      -5.445  -8.155  -9.051  0.00  0.00     0.029 A 
ATOM     35  C21 <0> d   1      -6.458  -8.643  -9.853  0.00  0.00     0.002 A 
ATOM     36  C20 <0> d   1      -6.429  -9.957 -10.284  0.00  0.00     0.000 A 
ATOM     37  C19 <0> d   1      -5.384 -10.785  -9.918  0.00  0.00     0.002 A 
ATOM     38  C18 <0> d   1      -4.364 -10.302  -9.121  0.00  0.00     0.029 A 
ENDBRANCH  30  33
ENDBRANCH  26  27
ENDBRANCH  25  26
ENDBRANCH  24  25
ENDBRANCH   4  24
TORSDOF 9
