REMARK  3 active torsions:
REMARK  status: ('A' for Active; 'I' for Inactive)
REMARK    1  A    between atoms: C7_7  and  C17_19 
REMARK    2  A    between atoms: C10_12  and  C11_13 
REMARK    3  A    between atoms: C17_19  and  N1_20 
ROOT
ATOM      1  C1  <0> d   1       3.762  -0.732  -0.039  0.00  0.00     0.050 C 
ATOM      2  C2  <0> d   1       2.448   0.006  -0.022  0.00  0.00    -0.032 A 
ATOM      3  C3  <0> d   1       1.222  -0.705  -0.014  0.00  0.00     0.006 A 
ATOM      4  C4  <0> d   1       1.220  -2.108  -0.023  0.00  0.00     0.018 A 
ATOM      5  C5  <0> d   1       0.038  -2.788  -0.015  0.00  0.00     0.041 A 
ATOM      6  C6  <0> d   1      -1.173  -2.097   0.002  0.00  0.00     0.118 A 
ATOM      7  C7  <0> d   1      -1.191  -0.713   0.009  0.00  0.00     0.039 A 
ATOM      8  C8  <0> d   1       0.002  -0.004   0.002  0.00  0.00     0.101 A 
ATOM      9  O1  <0> d   1      -0.016   1.347   0.009  0.00  0.00    -0.273 OA
ATOM     10  C9  <0> d   1       1.123   2.059   0.002  0.00  0.00     0.300 A 
ATOM     11  O2  <0> d   1       1.079   3.275   0.009  0.00  0.00    -0.259 OA
ATOM     12  C10 <0> d   1       2.419   1.375  -0.015  0.00  0.00     0.057 A 
ATOM     13  O4  <0> d   1      -2.342  -2.787   0.009  0.00  0.00    -0.191 OA
ENDROOT
BRANCH   7  14
ATOM     14  C17 <0> d   1      -2.506   0.024   0.027  0.00  0.00     0.279 C 
BRANCH  14  15
ATOM     15  N1  <0> d   1      -2.947   0.272  -1.352  0.00  0.00    -0.066 N 
ATOM     16  C22 <0> d   1      -3.262  -0.990  -2.040  0.00  0.00     0.245 C 
ATOM     17  C21 <0> d   1      -3.877  -0.646  -3.406  0.00  0.00     0.062 C 
ATOM     18  C20 <0> d   1      -2.806   0.064  -4.243  0.00  0.00     0.020 C 
ATOM     19  C23 <0> d   1      -5.026   0.305  -3.160  0.00  0.00     0.020 A 
ATOM     20  C19 <0> d   1      -2.422   1.349  -3.505  0.00  0.00     0.031 C 
ATOM     21  C18 <0> d   1      -1.944   1.042  -2.094  0.00  0.00     0.241 C 
ATOM     22  C28 <0> d   1      -3.602   2.305  -3.509  0.00  0.00     0.138 C 
ATOM     23  N2  <0> d   1      -4.856   1.648  -3.141  0.00  0.00    -0.317 N 
ATOM     24  C27 <0> d   1      -5.888   2.452  -2.783  0.00  0.00     0.247 A 
ATOM     25  C26 <0> d   1      -7.166   1.923  -2.560  0.00  0.00     0.074 A 
ATOM     26  O3  <0> d   1      -5.700   3.651  -2.652  0.00  0.00    -0.268 OA
ATOM     27  C25 <0> d   1      -7.353   0.575  -2.657  0.00  0.00     0.007 A 
ATOM     28  C24 <0> d   1      -6.254  -0.239  -2.952  0.00  0.00     0.026 A 
ATOM     29  H26 <0> d   1      -3.866   0.874  -1.312  0.00  0.00     0.280 HD
ENDBRANCH  14  15
ENDBRANCH   7  14
BRANCH  12  30
ATOM     30  C11 <0> d   1       3.680   2.154  -0.023  0.00  0.00    -0.019 A 
ATOM     31  C16 <0> d   1       3.996   2.961  -1.115  0.00  0.00     0.012 A 
ATOM     32  C15 <0> d   1       5.172   3.684  -1.117  0.00  0.00     0.001 A 
ATOM     33  C14 <0> d   1       6.035   3.609  -0.039  0.00  0.00     0.000 A 
ATOM     34  C13 <0> d   1       5.726   2.809   1.048  0.00  0.00     0.001 A 
ATOM     35  C12 <0> d   1       4.551   2.087   1.064  0.00  0.00     0.012 A 
ENDBRANCH  12  30
TORSDOF 3
