REMARK  6 active torsions:
REMARK  status: ('A' for Active; 'I' for Inactive)
REMARK    1  A    between atoms: C8_9  and  C9_11 
REMARK    2  A    between atoms: C16_19  and  C18_22 
REMARK    3  A    between atoms: C18_22  and  N1_23 
REMARK    4  A    between atoms: N2_26  and  C23_29 
REMARK    5  A    between atoms: C23_29  and  C24_30 
REMARK    6  A    between atoms: C24_30  and  O4_31 
ROOT
ATOM      1  C9  <0> d   1       5.906   0.865  -0.049  0.00  0.00     0.078 C 
ATOM      2  C10 <0> d   1       6.530   2.076  -0.049  0.00  0.00     0.129 A 
ATOM      3  C11 <0> d   1       7.980   2.304  -0.067  0.00  0.00     0.218 A 
ATOM      4  O2  <0> d   1       8.867   1.468  -0.085  0.00  0.00    -0.284 OA
ATOM      5  C12 <0> d   1       8.123   3.772  -0.058  0.00  0.00     0.051 A 
ATOM      6  C13 <0> d   1       9.229   4.623  -0.067  0.00  0.00     0.021 A 
ATOM      7  C14 <0> d   1       9.046   5.976  -0.055  0.00  0.00     0.041 A 
ATOM      8  C15 <0> d   1       7.760   6.508  -0.033  0.00  0.00     0.118 A 
ATOM      9  C16 <0> d   1       6.653   5.675  -0.024  0.00  0.00     0.039 A 
ATOM     10  C17 <0> d   1       6.821   4.296  -0.037  0.00  0.00     0.101 A 
ATOM     11  O3  <0> d   1       5.924   3.286  -0.037  0.00  0.00    -0.305 OA
ATOM     12  O5  <0> d   1       7.588   7.855  -0.020  0.00  0.00    -0.191 OA
ENDROOT
BRANCH   9  13
ATOM     13  C18 <0> d   1       5.266   6.265   0.000  0.00  0.00     0.279 C 
BRANCH  13  14
ATOM     14  N1  <0> d   1       4.796   6.468  -1.377  0.00  0.00    -0.064 N 
ATOM     15  C22 <0> d   1       3.402   6.929  -1.355  0.00  0.00     0.265 C 
ATOM     16  C21 <0> d   1       2.906   7.123  -2.790  0.00  0.00     0.300 C 
ATOM     17  N2  <0> d   1       3.757   8.109  -3.470  0.00  0.00     0.093 N 
ATOM     18  C20 <0> d   1       5.160   7.672  -3.478  0.00  0.00     0.300 C 
ATOM     19  C19 <0> d   1       5.637   7.475  -2.038  0.00  0.00     0.265 C 
ATOM     20  H23 <0> d   1       4.854   5.597  -1.883  0.00  0.00     0.280 HD
BRANCH  17  21
ATOM     21  C23 <0> d   1       3.277   8.365  -4.835  0.00  0.00     0.298 C 
BRANCH  21  22
ATOM     22  C24 <0> d   1       1.911   9.050  -4.776  0.00  0.00     0.194 C 
BRANCH  22  23
ATOM     23  O4  <0> d   1       2.049  10.339  -4.176  0.00  0.00    -0.399 OA
ATOM     24  H22 <0> d   1       1.220  10.832  -4.106  0.00  0.00     0.209 HD
ENDBRANCH  22  23
ENDBRANCH  21  22
ENDBRANCH  17  21
ENDBRANCH  13  14
ENDBRANCH   9  13
BRANCH   1  25
ATOM     25  C8  <0> d   1       4.492   0.796  -0.036  0.00  0.00     0.079 A 
ATOM     26  C7  <0> d   1       3.759  -0.353  -0.036  0.00  0.00     0.051 A 
ATOM     27  C4  <0> d   1       2.394   0.030  -0.021  0.00  0.00     0.002 A 
ATOM     28  C3  <0> d   1       2.378   1.438  -0.013  0.00  0.00     0.086 A 
ATOM     29  C5  <0> d   1       1.190  -0.681  -0.013  0.00  0.00     0.033 A 
ATOM     30  C2  <0> d   1       1.160   2.104   0.002  0.00  0.00     0.039 A 
ATOM     31  O1  <0> d   1       3.660   1.860  -0.023  0.00  0.00    -0.310 OA
ATOM     32  C1  <0> d   1      -0.017   1.384   0.010  0.00  0.00     0.022 A 
ATOM     33  C6  <0> d   1       0.002  -0.004   0.002  0.00  0.00     0.011 A 
ATOM     34 Br1  <0> d   1      -1.627  -0.965   0.012  0.00  0.00    -0.051 Br
ENDBRANCH   1  25
TORSDOF 6
