REMARK  6 active torsions:
REMARK  status: ('A' for Active; 'I' for Inactive)
REMARK    1  A    between atoms: C4_4  and  O5_31 
REMARK    2  A    between atoms: C5_5  and  C19_23 
REMARK    3  A    between atoms: C10_11  and  C11_12 
REMARK    4  A    between atoms: C14_15  and  O3_20 
REMARK    5  A    between atoms: C16_17  and  O2_18 
REMARK    6  A    between atoms: C19_23  and  N1_24 
ROOT
ATOM      1  C1  <0> d   1      -0.707   1.601   0.142  0.00  0.00     0.049 C 
ATOM      2  C2  <0> d   1      -0.779   0.096   0.115  0.00  0.00    -0.042 A 
ATOM      3  C3  <0> d   1      -1.038  -0.556  -1.058  0.00  0.00     0.045 A 
ATOM      4  C4  <0> d   1      -1.105  -1.946  -1.085  0.00  0.00     0.077 A 
ATOM      5  C5  <0> d   1      -0.911  -2.684   0.071  0.00  0.00     0.038 A 
ATOM      6  C6  <0> d   1      -0.646  -2.037   1.272  0.00  0.00     0.102 A 
ATOM      7  C7  <0> d   1      -0.576  -0.635   1.286  0.00  0.00     0.057 A 
ATOM      8  C8  <0> d   1      -0.281  -0.247   2.678  0.00  0.00     0.219 A 
ATOM      9  O1  <0> d   1      -0.142   0.878   3.125  0.00  0.00    -0.284 OA
ATOM     10  C9  <0> d   1      -0.192  -1.520   3.403  0.00  0.00     0.128 A 
ATOM     11  C10 <0> d   1       0.067  -1.672   4.730  0.00  0.00     0.055 C 
ATOM     12  O4  <0> d   1      -0.423  -2.516   2.515  0.00  0.00    -0.305 OA
ENDROOT
BRANCH  11  13
ATOM     13  C11 <0> d   1      -0.020  -2.998   5.346  0.00  0.00     0.000 A 
ATOM     14  C16 <0> d   1      -0.107  -3.124   6.744  0.00  0.00     0.081 A 
ATOM     15  C15 <0> d   1      -0.194  -4.382   7.314  0.00  0.00     0.074 A 
ATOM     16  C14 <0> d   1      -0.184  -5.510   6.505  0.00  0.00     0.070 A 
ATOM     17  C13 <0> d   1      -0.092  -5.383   5.122  0.00  0.00     0.038 A 
ATOM     18  C12 <0> d   1      -0.011  -4.149   4.545  0.00  0.00     0.017 A 
BRANCH  14  19
ATOM     19  O2  <0> d   1      -0.112  -2.017   7.530  0.00  0.00    -0.355 OA
ATOM     20  C17 <0> d   1      -0.203  -2.224   8.941  0.00  0.00     0.210 C 
ENDBRANCH  14  19
BRANCH  16  21
ATOM     21  O3  <0> d   1      -0.264  -6.743   7.067  0.00  0.00    -0.356 OA
ATOM     22  C18 <0> d   1      -0.249  -7.863   6.178  0.00  0.00     0.210 C 
ENDBRANCH  16  21
ENDBRANCH  11  13
BRANCH   5  23
ATOM     23  C19 <0> d   1      -0.987  -4.189   0.027  0.00  0.00     0.317 C 
BRANCH  23  24
ATOM     24  N1  <0> d   1       0.346  -4.738  -0.254  0.00  0.00     0.096 N 
ATOM     25  C23 <0> d   1       0.273  -6.178  -0.539  0.00  0.00     0.303 C 
ATOM     26  C22 <0> d   1       1.667  -6.695  -0.904  0.00  0.00     0.302 C 
ATOM     27  N2  <0> d   1       2.591  -6.427   0.206  0.00  0.00     0.087 N 
ATOM     28  C21 <0> d   1       2.665  -4.987   0.491  0.00  0.00     0.302 C 
ATOM     29  C24 <0> d   1       3.925  -6.977  -0.075  0.00  0.00     0.310 C 
ATOM     30  C20 <0> d   1       1.271  -4.471   0.856  0.00  0.00     0.303 C 
ENDBRANCH  23  24
ENDBRANCH   5  23
BRANCH   4  31
ATOM     31  O5  <0> d   1      -1.363  -2.585  -2.255  0.00  0.00    -0.360 OA
ATOM     32  H28 <0> d   1      -0.572  -2.808  -2.764  0.00  0.00     0.217 HD
ENDBRANCH   4  31
TORSDOF 6
