REMARK  6 active torsions:
REMARK  status: ('A' for Active; 'I' for Inactive)
REMARK    1  A    between atoms: C2_2  and  N1_3 
REMARK    2  A    between atoms: N2_6  and  C7_9 
REMARK    3  A    between atoms: C7_9  and  C8_10 
REMARK    4  A    between atoms: C13_16  and  O4_30 
REMARK    5  A    between atoms: C14_17  and  C18_22 
REMARK    6  A    between atoms: C21_25  and  O3_28 
ROOT
ATOM      1  C8  <0> d   1      -4.894   4.197  -0.088  0.00  0.00     0.039 A 
ATOM      2  C9  <0> d   1      -5.783   4.121   0.987  0.00  0.00     0.118 A 
ATOM      3  O1  <0> d   1      -6.934   4.793   0.946  0.00  0.00    -0.191 OA
ATOM      4  C10 <0> d   1      -5.471   3.336   2.115  0.00  0.00     0.041 A 
ATOM      5  C11 <0> d   1      -4.303   2.648   2.169  0.00  0.00     0.020 A 
ATOM      6  C12 <0> d   1      -3.398   2.715   1.094  0.00  0.00     0.033 A 
ATOM      7  C13 <0> d   1      -2.178   2.007   1.130  0.00  0.00     0.092 A 
ATOM      8  C14 <0> d   1      -1.311   2.115   0.020  0.00  0.00     0.038 A 
ATOM      9  C15 <0> d   1      -1.671   2.902  -1.049  0.00  0.00     0.063 A 
ATOM     10  O2  <0> d   1      -2.832   3.563  -1.071  0.00  0.00    -0.313 OA
ATOM     11  C16 <0> d   1      -3.702   3.499  -0.043  0.00  0.00     0.099 A 
ATOM     12  C17 <0> d   1      -0.737   3.016  -2.226  0.00  0.00     0.077 C 
ENDROOT
BRANCH   1  13
ATOM     13  C7  <0> d   1      -5.234   5.038  -1.292  0.00  0.00     0.279 C 
BRANCH  13  14
ATOM     14  N2  <0> d   1      -5.961   4.219  -2.271  0.00  0.00    -0.064 N 
ATOM     15  C4  <0> d   1      -6.514   5.053  -3.347  0.00  0.00     0.265 C 
ATOM     16  C3  <0> d   1      -7.329   4.175  -4.300  0.00  0.00     0.300 C 
ATOM     17  N1  <0> d   1      -6.467   3.119  -4.847  0.00  0.00     0.091 N 
ATOM     18  C6  <0> d   1      -5.913   2.285  -3.771  0.00  0.00     0.300 C 
ATOM     19  C5  <0> d   1      -5.098   3.162  -2.818  0.00  0.00     0.265 C 
ATOM     20  H29 <0> d   1      -6.800   3.736  -1.749  0.00  0.00     0.280 HD
BRANCH  17  21
ATOM     21  C2  <0> d   1      -7.194   2.300  -5.826  0.00  0.00     0.268 C 
ATOM     22  C1  <0> d   1      -6.211   1.379  -6.553  0.00  0.00     0.037 C 
ENDBRANCH  17  21
ENDBRANCH  13  14
ENDBRANCH   1  13
BRANCH   7  23
ATOM     23  O4  <0> d   1      -1.849   1.247   2.195  0.00  0.00    -0.359 OA
ATOM     24  H28 <0> d   1      -0.894   0.701   2.207  0.00  0.00     0.217 HD
ENDBRANCH   7  23
BRANCH   8  25
ATOM     25  C18 <0> d   1      -0.017   1.389   0.010  0.00  0.00    -0.021 A 
ATOM     26  C23 <0> d   1       0.002  -0.004   0.002  0.00  0.00     0.015 A 
ATOM     27  C22 <0> d   1       1.207  -0.676  -0.013  0.00  0.00     0.037 A 
ATOM     28  C21 <0> d   1       2.399   0.034  -0.021  0.00  0.00     0.068 A 
ATOM     29  C20 <0> d   1       2.383   1.422  -0.013  0.00  0.00     0.037 A 
ATOM     30  C19 <0> d   1       1.182   2.100   0.002  0.00  0.00     0.015 A 
BRANCH  28  31
ATOM     31  O3  <0> d   1       3.584  -0.630  -0.036  0.00  0.00    -0.356 OA
ATOM     32  C24 <0> d   1       4.773   0.163  -0.043  0.00  0.00     0.210 C 
ENDBRANCH  28  31
ENDBRANCH   8  25
TORSDOF 6
