REMARK  8 active torsions:
REMARK  status: ('A' for Active; 'I' for Inactive)
REMARK    1  A    between atoms: O1_2  and  C2_3 
REMARK    2  A    between atoms: C2_3  and  C3_5 
REMARK    3  A    between atoms: C6_8  and  O3_11 
REMARK    4  A    between atoms: O3_11  and  C9_12 
REMARK    5  A    between atoms: N1_24  and  C20_27 
REMARK    6  A    between atoms: C20_27  and  C21_28 
REMARK    7  A    between atoms: C21_28  and  C22_29 
REMARK    8  A    between atoms: C22_29  and  N2_30 
ROOT
ATOM      1  C9  <0> d   1       1.459  -6.837  -2.347  0.00  0.00     0.149 A 
ATOM      2  C10 <0> d   1       2.095  -6.133  -3.305  0.00  0.00     0.184 A 
ATOM      3  O4  <0> d   1       2.740  -6.715  -4.325  0.00  0.00    -0.318 OA
ATOM      4  C11 <0> d   1       2.798  -8.054  -4.473  0.00  0.00     0.100 A 
ATOM      5  C12 <0> d   1       2.171  -8.888  -3.531  0.00  0.00     0.051 A 
ATOM      6  C13 <0> d   1       1.465  -8.260  -2.401  0.00  0.00     0.220 A 
ATOM      7  O5  <0> d   1       0.906  -8.931  -1.549  0.00  0.00    -0.284 OA
ATOM      8  C14 <0> d   1       2.227 -10.275  -3.674  0.00  0.00     0.021 A 
ATOM      9  C15 <0> d   1       2.894 -10.819  -4.734  0.00  0.00     0.038 A 
ATOM     10  C16 <0> d   1       3.519  -9.999  -5.676  0.00  0.00     0.082 A 
ATOM     11  C17 <0> d   1       3.470  -8.623  -5.547  0.00  0.00     0.038 A 
ATOM     12  C18 <0> d   1       4.133  -7.727  -6.562  0.00  0.00     0.319 C 
ATOM     13  N1  <0> d   1       5.103  -8.504  -7.347  0.00  0.00     0.116 N 
ATOM     14  C19 <0> d   1       4.480  -9.745  -7.838  0.00  0.00     0.447 C 
ATOM     15  O6  <0> d   1       4.176 -10.576  -6.716  0.00  0.00    -0.321 OA
ENDROOT
BRANCH   1  16
ATOM     16  O3  <0> d   1       0.821  -6.192  -1.333  0.00  0.00    -0.305 OA
BRANCH  16  17
ATOM     17  C6  <0> d   1      -0.531  -6.282  -1.272  0.00  0.00     0.076 A 
ATOM     18  C5  <0> d   1      -1.230  -6.920  -2.292  0.00  0.00     0.038 A 
ATOM     19  C4  <0> d   1      -2.602  -7.013  -2.234  0.00  0.00     0.020 A 
ATOM     20  C3  <0> d   1      -3.293  -6.466  -1.149  0.00  0.00     0.039 A 
ATOM     21  C8  <0> d   1      -2.588  -5.822  -0.129  0.00  0.00     0.020 A 
ATOM     22  C7  <0> d   1      -1.215  -5.738  -0.191  0.00  0.00     0.038 A 
BRANCH  20  23
ATOM     23  C2  <0> d   1      -4.763  -6.564  -1.083  0.00  0.00     0.292 C 
ATOM     24  O2  <0> d   1      -5.363  -6.084  -0.141  0.00  0.00    -0.259 OA
BRANCH  23  25
ATOM     25  O1  <0> d   1      -5.442  -7.186  -2.067  0.00  0.00    -0.323 OA
ATOM     26  C1  <0> d   1      -6.864  -7.244  -1.938  0.00  0.00     0.213 C 
ENDBRANCH  23  25
ENDBRANCH  20  23
ENDBRANCH  16  17
ENDBRANCH   1  16
BRANCH  13  27
ATOM     27  C20 <0> d   1       5.639  -7.708  -8.459  0.00  0.00     0.277 C 
BRANCH  27  28
ATOM     28  C21 <0> d   1       6.816  -8.450  -9.097  0.00  0.00     0.058 C 
BRANCH  28  29
ATOM     29  C22 <0> d   1       7.373  -7.621 -10.255  0.00  0.00     0.236 C 
BRANCH  29  30
ATOM     30  N2  <0> d   1       8.503  -8.333 -10.868  0.00  0.00    -0.067 N 
ATOM     31  C26 <0> d   1       8.962  -7.596 -12.053  0.00  0.00     0.261 C 
ATOM     32  C25 <0> d   1      10.139  -8.340 -12.689  0.00  0.00     0.195 C 
ATOM     33  O7  <0> d   1      11.184  -8.484 -11.723  0.00  0.00    -0.388 OA
ATOM     34  C24 <0> d   1      10.778  -9.176 -10.539  0.00  0.00     0.195 C 
ATOM     35  C23 <0> d   1       9.602  -8.434  -9.898  0.00  0.00     0.261 C 
ATOM     36  H29 <0> d   1       8.209  -9.259 -11.140  0.00  0.00     0.280 HD
ENDBRANCH  29  30
ENDBRANCH  28  29
ENDBRANCH  27  28
ENDBRANCH  13  27
TORSDOF 8
