REMARK  5 active torsions:
REMARK  status: ('A' for Active; 'I' for Inactive)
REMARK    1  A    between atoms: O1_2  and  C2_3 
REMARK    2  A    between atoms: C5_6  and  O5_31 
REMARK    3  A    between atoms: C6_7  and  C8_9 
REMARK    4  A    between atoms: N1_21  and  C19_24 
REMARK    5  A    between atoms: C19_24  and  C20_25 
ROOT
ATOM      1  C8  <0> d   1       1.330  -4.084  -2.297  0.00  0.00     0.053 C 
ATOM      2  C9  <0> d   1       0.222  -4.819  -2.638  0.00  0.00     0.032 C 
ATOM      3  C10 <0> d   1       0.338  -6.234  -2.666  0.00  0.00    -0.000 A 
ATOM      4  C11 <0> d   1      -0.694  -7.022  -3.196  0.00  0.00     0.017 A 
ATOM      5  C12 <0> d   1      -0.552  -8.376  -3.252  0.00  0.00     0.038 A 
ATOM      6  C13 <0> d   1       0.610  -8.991  -2.781  0.00  0.00     0.082 A 
ATOM      7  C14 <0> d   1       1.631  -8.231  -2.239  0.00  0.00     0.038 A 
ATOM      8  C15 <0> d   1       1.498  -6.851  -2.166  0.00  0.00     0.100 A 
ATOM      9  O2  <0> d   1       2.472  -6.100  -1.596  0.00  0.00    -0.273 OA
ATOM     10  C16 <0> d   1       2.577  -4.817  -2.023  0.00  0.00     0.299 C 
ATOM     11  O3  <0> d   1       3.663  -4.288  -2.171  0.00  0.00    -0.259 OA
ATOM     12  C17 <0> d   1       2.891  -8.881  -1.728  0.00  0.00     0.320 C 
ATOM     13  N1  <0> d   1       2.657 -10.317  -1.522  0.00  0.00     0.121 N 
ATOM     14  C18 <0> d   1       2.025 -10.903  -2.715  0.00  0.00     0.448 C 
ATOM     15  O4  <0> d   1       0.717 -10.344  -2.859  0.00  0.00    -0.321 OA
ENDROOT
BRANCH   1  16
ATOM     16  C6  <0> d   1       1.275  -2.606  -2.214  0.00  0.00     0.016 A 
ATOM     17  C5  <0> d   1       1.843  -1.824  -3.224  0.00  0.00     0.079 A 
ATOM     18  C4  <0> d   1       1.789  -0.443  -3.141  0.00  0.00     0.040 A 
ATOM     19  C3  <0> d   1       1.173   0.163  -2.062  0.00  0.00     0.039 A 
ATOM     20  C2  <0> d   1       0.606  -0.608  -1.056  0.00  0.00     0.069 A 
ATOM     21  C7  <0> d   1       0.660  -1.989  -1.126  0.00  0.00     0.052 A 
BRANCH  17  22
ATOM     22  O5  <0> d   1       2.449  -2.419  -4.287  0.00  0.00    -0.355 OA
ATOM     23  C25 <0> d   1       3.007  -1.558  -5.281  0.00  0.00     0.210 C 
ENDBRANCH  17  22
BRANCH  20  24
ATOM     24  O1  <0> d   1       0.002  -0.004   0.002  0.00  0.00    -0.356 OA
ATOM     25  C1  <0> d   1      -0.017   1.425   0.010  0.00  0.00     0.210 C 
ENDBRANCH  20  24
ENDBRANCH   1  16
BRANCH  13  26
ATOM     26  C19 <0> d   1       3.909 -11.012  -1.194  0.00  0.00     0.332 C 
BRANCH  26  27
ATOM     27  C20 <0> d   1       3.600 -12.420  -0.752  0.00  0.00     0.037 A 
ATOM     28  N2  <0> d   1       3.454 -13.369  -1.655  0.00  0.00    -0.368 N 
ATOM     29  C24 <0> d   1       3.189 -14.616  -1.314  0.00  0.00     0.088 A 
ATOM     30  H23 <0> d   1       3.547 -13.146  -2.594  0.00  0.00     0.165 HD
ATOM     31  C23 <0> d   1       3.043 -14.970   0.013  0.00  0.00     0.017 A 
ATOM     32  C22 <0> d   1       3.185 -13.997   0.992  0.00  0.00     0.003 A 
ATOM     33  C21 <0> d   1       3.469 -12.699   0.595  0.00  0.00     0.027 A 
ENDBRANCH  26  27
ENDBRANCH  13  26
TORSDOF 5
