REMARK  3 active torsions:
REMARK  status: ('A' for Active; 'I' for Inactive)
REMARK    1  A    between atoms: C9_10  and  C10_11 
REMARK    2  A    between atoms: N1_21  and  C19_24 
REMARK    3  A    between atoms: C19_24  and  C20_25 
ROOT
ATOM      1  C1  <0> d   1       4.497   1.813  -6.058  0.00  0.00     0.054 C 
ATOM      2  C2  <0> d   1       3.472   0.862  -5.496  0.00  0.00     0.007 A 
ATOM      3  C3  <0> d   1       3.122   0.935  -4.155  0.00  0.00     0.087 A 
ATOM      4  C4  <0> d   1       2.175   0.064  -3.627  0.00  0.00     0.005 A 
ATOM      5  C5  <0> d   1       1.583  -0.874  -4.428  0.00  0.00     0.030 A 
ATOM      6  C6  <0> d   1       1.927  -0.959  -5.776  0.00  0.00     0.052 A 
ATOM      7  C7  <0> d   1       2.880  -0.084  -6.322  0.00  0.00     0.099 A 
ATOM      8  O1  <0> d   1       3.046  -0.353  -7.636  0.00  0.00    -0.305 OA
ATOM      9  C8  <0> d   1       2.259  -1.376  -8.043  0.00  0.00     0.127 A 
ATOM     10  C9  <0> d   1       2.193  -1.886  -9.299  0.00  0.00     0.053 C 
ATOM     11  C16 <0> d   1       1.487  -1.834  -6.878  0.00  0.00     0.218 A 
ATOM     12  O2  <0> d   1       0.668  -2.735  -6.833  0.00  0.00    -0.284 OA
ATOM     13  C17 <0> d   1       1.785   0.139  -2.172  0.00  0.00     0.317 C 
ATOM     14  N1  <0> d   1       2.802   0.896  -1.428  0.00  0.00     0.120 N 
ATOM     15  C18 <0> d   1       3.095   2.164  -2.117  0.00  0.00     0.448 C 
ATOM     16  O3  <0> d   1       3.719   1.869  -3.369  0.00  0.00    -0.320 OA
ENDROOT
BRANCH  10  17
ATOM     17  C10 <0> d   1       2.943  -1.250 -10.390  0.00  0.00    -0.033 A 
ATOM     18  C15 <0> d   1       3.824  -0.197 -10.118  0.00  0.00     0.014 A 
ATOM     19  C14 <0> d   1       4.524   0.396 -11.146  0.00  0.00     0.043 A 
ATOM     20  C13 <0> d   1       4.357  -0.050 -12.449  0.00  0.00     0.116 A 
ATOM     21  C12 <0> d   1       3.485  -1.092 -12.727  0.00  0.00     0.043 A 
ATOM     22  F1  <0> d   1       5.046   0.536 -13.453  0.00  0.00    -0.206 F 
ATOM     23  C11 <0> d   1       2.783  -1.697 -11.707  0.00  0.00     0.014 A 
ENDBRANCH  10  17
BRANCH  14  24
ATOM     24  C19 <0> d   1       2.372   1.136  -0.044  0.00  0.00     0.315 C 
BRANCH  24  25
ATOM     25  C20 <0> d   1       1.048   1.857  -0.048  0.00  0.00    -0.013 A 
ATOM     26  C24 <0> d   1      -0.136   1.145  -0.045  0.00  0.00     0.125 A 
ATOM     27  N2  <0> d   1      -1.298   1.768  -0.053  0.00  0.00    -0.273 NA
ATOM     28  C23 <0> d   1      -1.379   3.084  -0.054  0.00  0.00     0.116 A 
ATOM     29  C22 <0> d   1      -0.237   3.863  -0.058  0.00  0.00     0.020 A 
ATOM     30  C21 <0> d   1       1.003   3.243  -0.054  0.00  0.00     0.012 A 
ENDBRANCH  24  25
ENDBRANCH  14  24
TORSDOF 3
