REMARK  10 active torsions:
REMARK  status: ('A' for Active; 'I' for Inactive)
REMARK    1  A    between atoms: C2_2  and  C3_3 
REMARK    2  A    between atoms: C3_3  and  C4_4 
REMARK    3  A    between atoms: C4_4  and  N1_5 
REMARK    4  A    between atoms: N1_5  and  C5_6 
REMARK    5  A    between atoms: N1_5  and  C9_10 
REMARK    6  A    between atoms: C5_6  and  C6_7 
REMARK    7  A    between atoms: C6_7  and  C7_8 
REMARK    8  A    between atoms: C9_10  and  C10_11 
REMARK    9  A    between atoms: C11_12  and  O4_32 
REMARK   10  A    between atoms: C17_19  and  C18_20 
ROOT
ATOM      1  C10 <0> d   1      -0.017   1.398   0.005  0.00  0.00     0.036 A 
ATOM      2  C11 <0> d   1       1.167   2.116  -0.035  0.00  0.00     0.076 A 
ATOM      3  C12 <0> d   1       2.394   1.458  -0.056  0.00  0.00     0.038 A 
ATOM      4  C13 <0> d   1       2.441   0.092  -0.035  0.00  0.00     0.021 A 
ATOM      5  C14 <0> d   1       1.256  -0.643   0.006  0.00  0.00     0.051 A 
ATOM      6  C15 <0> d   1       0.013   0.009   0.026  0.00  0.00     0.101 A 
ATOM      7  O1  <0> d   1      -0.980  -0.906   0.066  0.00  0.00    -0.305 OA
ATOM      8  C16 <0> d   1      -0.498  -2.171   0.075  0.00  0.00     0.129 A 
ATOM      9  C17 <0> d   1      -1.239  -3.313   0.112  0.00  0.00     0.078 C 
ATOM     10  C26 <0> d   1       0.967  -2.089   0.037  0.00  0.00     0.218 A 
ATOM     11  O3  <0> d   1       1.766  -3.010   0.033  0.00  0.00    -0.284 OA
ENDROOT
BRANCH   1  12
ATOM     12  C9  <0> d   1      -1.338   2.123   0.020  0.00  0.00     0.279 C 
BRANCH  12  13
ATOM     13  N1  <0> d   1      -1.813   2.247   1.404  0.00  0.00    -0.067 N 
ATOM     14  H28 <0> d   1      -2.828   2.671   1.377  0.00  0.00     0.280 HD
BRANCH  13  15
ATOM     15  C4  <0> d   1      -1.891   0.932   2.054  0.00  0.00     0.235 C 
BRANCH  15  16
ATOM     16  C3  <0> d   1      -2.618   1.067   3.393  0.00  0.00     0.027 C 
BRANCH  16  17
ATOM     17  C2  <0> d   1      -2.699  -0.303   4.070  0.00  0.00    -0.003 C 
ATOM     18  C1  <0> d   1      -3.426  -0.168   5.409  0.00  0.00     0.005 C 
ENDBRANCH  16  17
ENDBRANCH  15  16
ENDBRANCH  13  15
BRANCH  13  19
ATOM     19  C5  <0> d   1      -0.962   3.164   2.173  0.00  0.00     0.235 C 
BRANCH  19  20
ATOM     20  C6  <0> d   1      -1.263   4.606   1.761  0.00  0.00     0.027 C 
BRANCH  20  21
ATOM     21  C7  <0> d   1      -0.469   5.567   2.649  0.00  0.00    -0.003 C 
ATOM     22  C8  <0> d   1      -0.771   7.009   2.237  0.00  0.00     0.005 C 
ENDBRANCH  20  21
ENDBRANCH  19  20
ENDBRANCH  13  19
ENDBRANCH  12  13
ENDBRANCH   1  12
BRANCH   2  23
ATOM     23  O4  <0> d   1       1.131   3.473  -0.056  0.00  0.00    -0.360 OA
ATOM     24  H29 <0> d   1       2.068   4.047  -0.088  0.00  0.00     0.217 HD
ENDBRANCH   2  23
BRANCH   9  25
ATOM     25  C18 <0> d   1      -2.652  -3.240   0.145  0.00  0.00     0.079 A 
ATOM     26  O2  <0> d   1      -3.374  -2.099   0.150  0.00  0.00    -0.310 OA
ATOM     27  C25 <0> d   1      -4.691  -2.390   0.182  0.00  0.00     0.086 A 
ATOM     28  C20 <0> d   1      -4.816  -3.792   0.207  0.00  0.00     0.002 A 
ATOM     29  C24 <0> d   1      -5.837  -1.605   0.197  0.00  0.00     0.039 A 
ATOM     30  C19 <0> d   1      -3.496  -4.310   0.183  0.00  0.00     0.051 A 
ATOM     31  C21 <0> d   1      -6.085  -4.379   0.248  0.00  0.00     0.033 A 
ATOM     32  C22 <0> d   1      -7.199  -3.587   0.263  0.00  0.00     0.011 A 
ATOM     33  C23 <0> d   1      -7.079  -2.203   0.238  0.00  0.00     0.022 A 
ATOM     34 Br1  <0> d   1      -8.914  -4.380   0.319  0.00  0.00    -0.051 Br
ENDBRANCH   9  25
TORSDOF 10
