REMARK  7 active torsions:
REMARK  status: ('A' for Active; 'I' for Inactive)
REMARK    1  A    between atoms: O1_2  and  C2_3 
REMARK    2  A    between atoms: C5_6  and  C8_9 
REMARK    3  A    between atoms: C10_14  and  C11_15 
REMARK    4  A    between atoms: C14_18  and  O3_22 
REMARK    5  A    between atoms: O3_22  and  C17_23 
REMARK    6  A    between atoms: C17_23  and  C18_24 
REMARK    7  A    between atoms: C18_24  and  N3_25 
ROOT
ATOM      1  C11 <0> d   1       0.441  -3.697   4.458  0.00  0.00     0.032 A 
ATOM      2  C12 <0> d   1      -0.380  -3.445   3.361  0.00  0.00     0.019 A 
ATOM      3  C13 <0> d   1      -1.633  -4.016   3.292  0.00  0.00     0.038 A 
ATOM      4  C14 <0> d   1      -2.082  -4.842   4.315  0.00  0.00     0.071 A 
ATOM      5  C15 <0> d   1      -1.271  -5.097   5.411  0.00  0.00     0.077 A 
ATOM      6  C16 <0> d   1      -0.009  -4.534   5.485  0.00  0.00     0.122 A 
ATOM      7  O2  <0> d   1       0.789  -4.788   6.555  0.00  0.00    -0.191 OA
ENDROOT
BRANCH   1   8
ATOM      8  C10 <0> d   1       1.789  -3.085   4.535  0.00  0.00     0.102 A 
ATOM      9  C8  <0> d   1       2.754  -3.057   3.496  0.00  0.00     0.022 A 
ATOM     10  C9  <0> d   1       3.848  -2.399   3.971  0.00  0.00     0.124 A 
ATOM     11  N1  <0> d   1       3.591  -2.035   5.245  0.00  0.00    -0.288 N 
ATOM     12  N2  <0> d   1       2.305  -2.475   5.580  0.00  0.00    -0.174 NA
ATOM     13  H1  <0> d   1       4.195  -1.551   5.829  0.00  0.00     0.188 HD
BRANCH   9  14
ATOM     14  C5  <0> d   1       2.597  -3.634   2.138  0.00  0.00    -0.022 A 
ATOM     15  C4  <0> d   1       2.772  -2.829   1.013  0.00  0.00     0.015 A 
ATOM     16  C3  <0> d   1       2.626  -3.368  -0.248  0.00  0.00     0.037 A 
ATOM     17  C2  <0> d   1       2.307  -4.710  -0.398  0.00  0.00     0.068 A 
ATOM     18  C7  <0> d   1       2.127  -5.513   0.720  0.00  0.00     0.037 A 
ATOM     19  C6  <0> d   1       2.276  -4.981   1.984  0.00  0.00     0.015 A 
BRANCH  17  20
ATOM     20  O1  <0> d   1       2.164  -5.238  -1.642  0.00  0.00    -0.356 OA
ATOM     21  C1  <0> d   1       2.364  -4.356  -2.749  0.00  0.00     0.210 C 
ENDBRANCH  17  20
ENDBRANCH   9  14
ENDBRANCH   1   8
BRANCH   4  22
ATOM     22  O3  <0> d   1      -3.318  -5.400   4.242  0.00  0.00    -0.349 OA
BRANCH  22  23
ATOM     23  C17 <0> d   1      -3.716  -6.239   5.328  0.00  0.00     0.203 C 
BRANCH  23  24
ATOM     24  C18 <0> d   1      -5.127  -6.773   5.069  0.00  0.00     0.261 C 
BRANCH  24  25
ATOM     25  N3  <0> d   1      -5.117  -7.620   3.869  0.00  0.00    -0.069 N 
ATOM     26  C23 <0> d   1      -4.310  -8.819   4.125  0.00  0.00     0.235 C 
ATOM     27  C22 <0> d   1      -4.230  -9.666   2.853  0.00  0.00     0.028 C 
ATOM     28  C21 <0> d   1      -5.644 -10.080   2.433  0.00  0.00     0.003 C 
ATOM     29  C20 <0> d   1      -6.497  -8.824   2.241  0.00  0.00     0.028 C 
ATOM     30  C19 <0> d   1      -6.493  -8.008   3.536  0.00  0.00     0.235 C 
ATOM     31  H27 <0> d   1      -4.719  -7.106   3.099  0.00  0.00     0.280 HD
ENDBRANCH  24  25
ENDBRANCH  23  24
ENDBRANCH  22  23
ENDBRANCH   4  22
TORSDOF 7
