REMARK  6 active torsions:
REMARK  status: ('A' for Active; 'I' for Inactive)
REMARK    1  A    between atoms: O1_2  and  C2_3 
REMARK    2  A    between atoms: C5_6  and  N1_9 
REMARK    3  A    between atoms: N2_12  and  C12_15 
REMARK    4  A    between atoms: C12_15  and  C13_16 
REMARK    5  A    between atoms: C20_24  and  C22_27 
REMARK    6  A    between atoms: C27_32  and  O4_33 
ROOT
ATOM      1  C13 <0> d   1      -0.718   1.572   1.248  0.00  0.00     0.039 A 
ATOM      2  C14 <0> d   1      -0.361   2.781   1.821  0.00  0.00     0.118 A 
ATOM      3  C15 <0> d   1      -1.010   3.243   2.964  0.00  0.00     0.041 A 
ATOM      4  C16 <0> d   1      -2.001   2.502   3.541  0.00  0.00     0.021 A 
ATOM      5  C17 <0> d   1      -2.368   1.279   2.979  0.00  0.00     0.050 A 
ATOM      6  C18 <0> d   1      -1.724   0.806   1.822  0.00  0.00     0.100 A 
ATOM      7  O2  <0> d   1      -2.081  -0.375   1.279  0.00  0.00    -0.320 OA
ATOM      8  C19 <0> d   1      -3.040  -1.154   1.786  0.00  0.00     0.159 A 
ATOM      9  C20 <0> d   1      -3.743  -0.819   2.898  0.00  0.00     0.050 A 
ATOM     10  C21 <0> d   1      -3.434   0.453   3.574  0.00  0.00     0.198 A 
ATOM     11  O3  <0> d   1      -4.032   0.806   4.576  0.00  0.00    -0.286 OA
ATOM     12  O5  <0> d   1       0.627   3.525   1.261  0.00  0.00    -0.191 OA
ENDROOT
BRANCH   1  13
ATOM     13  C12 <0> d   1      -0.013   1.086   0.008  0.00  0.00     0.279 C 
BRANCH  13  14
ATOM     14  N2  <0> d   1      -0.723   1.572  -1.182  0.00  0.00    -0.065 N 
ATOM     15  C9  <0> d   1       0.059   1.323  -2.401  0.00  0.00     0.250 C 
ATOM     16  C8  <0> d   1      -0.677   1.914  -3.606  0.00  0.00     0.123 C 
ATOM     17  N1  <0> d   1      -2.012   1.308  -3.707  0.00  0.00    -0.280 NA
ATOM     18  C11 <0> d   1      -2.794   1.557  -2.488  0.00  0.00     0.123 C 
ATOM     19  C10 <0> d   1      -2.058   0.966  -1.283  0.00  0.00     0.250 C 
ATOM     20  H28 <0> d   1      -0.851   2.660  -1.077  0.00  0.00     0.280 HD
BRANCH  17  21
ATOM     21  C5  <0> d   1      -2.689   1.771  -4.840  0.00  0.00     0.010 A 
ATOM     22  C4  <0> d   1      -3.972   1.317  -5.118  0.00  0.00     0.026 A 
ATOM     23  C3  <0> d   1      -4.639   1.776  -6.237  0.00  0.00     0.038 A 
ATOM     24  C2  <0> d   1      -4.028   2.689  -7.083  0.00  0.00     0.068 A 
ATOM     25  C7  <0> d   1      -2.747   3.142  -6.808  0.00  0.00     0.038 A 
ATOM     26  C6  <0> d   1      -2.080   2.690  -5.686  0.00  0.00     0.026 A 
BRANCH  24  27
ATOM     27  O1  <0> d   1      -4.686   3.140  -8.185  0.00  0.00    -0.356 OA
ATOM     28  C1  <0> d   1      -3.998   4.079  -9.013  0.00  0.00     0.210 C 
ENDBRANCH  24  27
ENDBRANCH  17  21
ENDBRANCH  13  14
ENDBRANCH   1  13
BRANCH   9  29
ATOM     29  C22 <0> d   1      -4.800  -1.717   3.424  0.00  0.00     0.013 A 
ATOM     30  C27 <0> d   1      -6.134  -1.300   3.434  0.00  0.00     0.079 A 
ATOM     31  C26 <0> d   1      -7.115  -2.146   3.924  0.00  0.00     0.037 A 
ATOM     32  C25 <0> d   1      -6.774  -3.396   4.408  0.00  0.00     0.003 A 
ATOM     33  C24 <0> d   1      -5.454  -3.809   4.403  0.00  0.00     0.001 A 
ATOM     34  C23 <0> d   1      -4.467  -2.978   3.914  0.00  0.00     0.015 A 
BRANCH  30  35
ATOM     35  O4  <0> d   1      -6.468  -0.070   2.963  0.00  0.00    -0.355 OA
ATOM     36  C28 <0> d   1      -7.851   0.288   3.005  0.00  0.00     0.210 C 
ENDBRANCH  30  35
ENDBRANCH   9  29
TORSDOF 6
