REMARK  5 active torsions:
REMARK  status: ('A' for Active; 'I' for Inactive)
REMARK    1  A    between atoms: C3_3  and  O4_22 
REMARK    2  A    between atoms: C9_10  and  C11_13 
REMARK    3  A    between atoms: C11_13  and  N1_14 
REMARK    4  A    between atoms: O4_22  and  C17_23 
REMARK    5  A    between atoms: C21_27  and  O5_29 
ROOT
ATOM      1  C1  <0> d   1      -4.840   1.311   0.032  0.00  0.00     0.080 C 
ATOM      2  C2  <0> d   1      -3.583   2.142   0.030  0.00  0.00     0.087 A 
ATOM      3  C3  <0> d   1      -3.697   3.485   0.038  0.00  0.00     0.156 A 
ATOM      4  C4  <0> d   1      -2.522   4.289   0.049  0.00  0.00     0.221 A 
ATOM      5  O1  <0> d   1      -2.586   5.507   0.057  0.00  0.00    -0.284 OA
ATOM      6  C5  <0> d   1      -1.226   3.589   0.033  0.00  0.00     0.052 A 
ATOM      7  C6  <0> d   1      -0.020   4.292   0.025  0.00  0.00     0.021 A 
ATOM      8  C7  <0> d   1       1.162   3.607   0.010  0.00  0.00     0.041 A 
ATOM      9  C8  <0> d   1       1.169   2.214   0.003  0.00  0.00     0.118 A 
ATOM     10  C9  <0> d   1      -0.018   1.503   0.010  0.00  0.00     0.039 A 
ATOM     11  C10 <0> d   1      -1.228   2.183   0.020  0.00  0.00     0.101 A 
ATOM     12  O2  <0> d   1      -2.399   1.515   0.021  0.00  0.00    -0.311 OA
ATOM     13  O3  <0> d   1       2.352   1.548  -0.012  0.00  0.00    -0.191 OA
ENDROOT
BRANCH   3  14
ATOM     14  O4  <0> d   1      -4.927   4.068   0.046  0.00  0.00    -0.304 OA
BRANCH  14  15
ATOM     15  C17 <0> d   1      -5.498   4.335   1.250  0.00  0.00     0.079 A 
ATOM     16  C22 <0> d   1      -6.750   4.929   1.308  0.00  0.00     0.074 A 
ATOM     17  C21 <0> d   1      -7.330   5.200   2.538  0.00  0.00     0.070 A 
ATOM     18  C20 <0> d   1      -6.657   4.877   3.707  0.00  0.00     0.037 A 
ATOM     19  C19 <0> d   1      -5.409   4.285   3.647  0.00  0.00     0.005 A 
ATOM     20  C18 <0> d   1      -4.831   4.009   2.423  0.00  0.00     0.037 A 
BRANCH  17  21
ATOM     21  O5  <0> d   1      -8.556   5.781   2.598  0.00  0.00    -0.356 OA
ATOM     22  C23 <0> d   1      -9.093   6.031   3.898  0.00  0.00     0.210 C 
ENDBRANCH  17  21
ENDBRANCH  14  15
ENDBRANCH   3  14
BRANCH  10  23
ATOM     23  C11 <0> d   1       0.002  -0.004   0.002  0.00  0.00     0.279 C 
BRANCH  23  24
ATOM     24  N1  <0> d   1       0.022  -0.501   1.384  0.00  0.00    -0.064 N 
ATOM     25  C15 <0> d   1      -0.196  -1.954   1.425  0.00  0.00     0.265 C 
ATOM     26  C14 <0> d   1      -0.248  -2.419   2.882  0.00  0.00     0.299 C 
ATOM     27  N2  <0> d   1       1.009  -2.059   3.553  0.00  0.00     0.087 N 
ATOM     28  C13 <0> d   1       1.227  -0.606   3.513  0.00  0.00     0.299 C 
ATOM     29  C16 <0> d   1       1.029  -2.556   4.935  0.00  0.00     0.310 C 
ATOM     30  C12 <0> d   1       1.279  -0.141   2.055  0.00  0.00     0.265 C 
ATOM     31  H26 <0> d   1      -0.804  -0.018   1.927  0.00  0.00     0.280 HD
ENDBRANCH  23  24
ENDBRANCH  10  23
TORSDOF 5
