REMARK  3 active torsions:
REMARK  status: ('A' for Active; 'I' for Inactive)
REMARK    1  A    between atoms: C3_3  and  C18_22 
REMARK    2  A    between atoms: C9_10  and  C11_13 
REMARK    3  A    between atoms: C11_13  and  N1_14 
ROOT
ATOM      1  C1  <0> d   1      -6.707   4.751  -0.222  0.00  0.00     0.078 C 
ATOM      2  C2  <0> d   1      -5.801   5.151   0.914  0.00  0.00     0.067 A 
ATOM      3  C3  <0> d   1      -6.361   5.521   2.099  0.00  0.00     0.080 A 
ATOM      4  C4  <0> d   1      -5.472   5.902   3.212  0.00  0.00     0.200 A 
ATOM      5  O1  <0> d   1      -5.915   6.242   4.295  0.00  0.00    -0.286 OA
ATOM      6  C5  <0> d   1      -4.023   5.868   2.945  0.00  0.00     0.050 A 
ATOM      7  C6  <0> d   1      -3.098   6.226   3.928  0.00  0.00     0.021 A 
ATOM      8  C7  <0> d   1      -1.762   6.183   3.648  0.00  0.00     0.041 A 
ATOM      9  C8  <0> d   1      -1.319   5.785   2.388  0.00  0.00     0.118 A 
ATOM     10  C9  <0> d   1      -2.225   5.428   1.403  0.00  0.00     0.039 A 
ATOM     11  C10 <0> d   1      -3.587   5.470   1.669  0.00  0.00     0.100 A 
ATOM     12  O2  <0> d   1      -4.481   5.131   0.720  0.00  0.00    -0.313 OA
ATOM     13  O3  <0> d   1       0.011   5.747   2.123  0.00  0.00    -0.191 OA
ENDROOT
BRANCH   3  14
ATOM     14  C18 <0> d   1      -7.827   5.529   2.269  0.00  0.00     0.115 A 
ATOM     15  S1  <0> d   1      -8.786   5.969   3.712  0.00  0.00    -0.067 SA
ATOM     16  C24 <0> d   1     -10.392   5.688   3.006  0.00  0.00     0.035 A 
ATOM     17  C19 <0> d   1     -10.075   5.269   1.692  0.00  0.00     0.075 A 
ATOM     18  C23 <0> d   1     -11.685   5.793   3.456  0.00  0.00     0.021 A 
ATOM     19  N2  <0> d   1      -8.761   5.219   1.395  0.00  0.00    -0.239 NA
ATOM     20  C20 <0> d   1     -11.173   4.960   0.854  0.00  0.00     0.033 A 
ATOM     21  C21 <0> d   1     -12.450   5.068   1.310  0.00  0.00     0.002 A 
ATOM     22  C22 <0> d   1     -12.729   5.482   2.605  0.00  0.00     0.002 A 
ENDBRANCH   3  14
BRANCH  10  23
ATOM     23  C11 <0> d   1      -1.734   5.000   0.044  0.00  0.00     0.279 C 
BRANCH  23  24
ATOM     24  N1  <0> d   1      -1.525   3.546   0.035  0.00  0.00    -0.063 N 
ATOM     25  C16 <0> d   1      -0.826   3.122  -1.185  0.00  0.00     0.184 C 
ATOM     26  C15 <0> d   1      -0.756   1.594  -1.230  0.00  0.00     0.033 C 
ATOM     27  C17 <0> d   1      -1.586   3.634  -2.411  0.00  0.00     0.040 C 
ATOM     28  C14 <0> d   1      -0.013   1.086   0.008  0.00  0.00     0.004 C 
ATOM     29  C13 <0> d   1      -0.732   1.581   1.266  0.00  0.00     0.028 C 
ATOM     30  C12 <0> d   1      -0.804   3.109   1.238  0.00  0.00     0.235 C 
ATOM     31  H24 <0> d   1      -2.512   3.061   0.041  0.00  0.00     0.280 HD
ENDBRANCH  23  24
ENDBRANCH  10  23
TORSDOF 3
