REMARK  7 active torsions:
REMARK  status: ('A' for Active; 'I' for Inactive)
REMARK    1  A    between atoms: N1_2  and  C3_4 
REMARK    2  A    between atoms: C3_4  and  C4_5 
REMARK    3  A    between atoms: C5_6  and  O5_29 
REMARK    4  A    between atoms: C10_12  and  C20_25 
REMARK    5  A    between atoms: C11_13  and  O3_16 
REMARK    6  A    between atoms: O3_16  and  C13_17 
REMARK    7  A    between atoms: C17_21  and  O4_23 
ROOT
ATOM      1  C4  <0> d   1      -1.312  -2.034  -0.243  0.00  0.00     0.035 A 
ATOM      2  C5  <0> d   1      -1.200  -2.918   0.817  0.00  0.00     0.076 A 
ATOM      3  C6  <0> d   1      -1.153  -4.292   0.592  0.00  0.00     0.038 A 
ATOM      4  C7  <0> d   1      -1.217  -4.786  -0.680  0.00  0.00     0.021 A 
ATOM      5  C8  <0> d   1      -1.330  -3.909  -1.758  0.00  0.00     0.052 A 
ATOM      6  C9  <0> d   1      -1.383  -2.520  -1.541  0.00  0.00     0.101 A 
ATOM      7  O1  <0> d   1      -1.498  -1.682  -2.590  0.00  0.00    -0.301 OA
ATOM      8  C10 <0> d   1      -1.569  -2.119  -3.854  0.00  0.00     0.197 A 
ATOM      9  C11 <0> d   1      -1.532  -3.428  -4.176  0.00  0.00     0.165 A 
ATOM     10  C12 <0> d   1      -1.401  -4.401  -3.145  0.00  0.00     0.221 A 
ATOM     11  O2  <0> d   1      -1.364  -5.594  -3.398  0.00  0.00    -0.284 OA
ENDROOT
BRANCH   9  12
ATOM     12  O3  <0> d   1      -1.608  -3.816  -5.479  0.00  0.00    -0.304 OA
BRANCH  12  13
ATOM     13  C13 <0> d   1      -0.448  -3.942  -6.175  0.00  0.00     0.079 A 
ATOM     14  C18 <0> d   1      -0.476  -4.335  -7.505  0.00  0.00     0.074 A 
ATOM     15  C17 <0> d   1       0.709  -4.462  -8.213  0.00  0.00     0.070 A 
ATOM     16  C16 <0> d   1       1.920  -4.197  -7.590  0.00  0.00     0.037 A 
ATOM     17  C15 <0> d   1       1.946  -3.806  -6.265  0.00  0.00     0.005 A 
ATOM     18  C14 <0> d   1       0.766  -3.673  -5.558  0.00  0.00     0.037 A 
BRANCH  15  19
ATOM     19  O4  <0> d   1       0.684  -4.846  -9.516  0.00  0.00    -0.356 OA
ATOM     20  C19 <0> d   1       1.942  -4.957 -10.184  0.00  0.00     0.210 C 
ENDBRANCH  15  19
ENDBRANCH  12  13
ENDBRANCH   9  12
BRANCH   8  21
ATOM     21  C20 <0> d   1      -1.696  -1.107  -4.963  0.00  0.00     0.442 C 
ATOM     22  F1  <0> d   1      -3.049  -0.854  -5.211  0.00  0.00    -0.164 F 
ATOM     23  F2  <0> d   1      -1.061   0.081  -4.585  0.00  0.00    -0.164 F 
ATOM     24  F3  <0> d   1      -1.095  -1.607  -6.123  0.00  0.00    -0.164 F 
ENDBRANCH   8  21
BRANCH   1  25
ATOM     25  C3  <0> d   1      -1.362  -0.549   0.012  0.00  0.00     0.278 C 
BRANCH  25  26
ATOM     26  N1  <0> d   1       0.002  -0.004   0.002  0.00  0.00    -0.075 N 
ATOM     27  C1  <0> d   1      -0.018   1.465   0.010  0.00  0.00     0.269 C 
ATOM     28  C2  <0> d   1       0.786  -0.526   1.129  0.00  0.00     0.269 C 
ATOM     29  H18 <0> d   1       0.490  -0.331  -0.928  0.00  0.00     0.279 HD
ENDBRANCH  25  26
ENDBRANCH   1  25
BRANCH   2  30
ATOM     30  O5  <0> d   1      -1.136  -2.441   2.086  0.00  0.00    -0.360 OA
ATOM     31  H19 <0> d   1      -1.047  -3.139   2.932  0.00  0.00     0.217 HD
ENDBRANCH   2  30
TORSDOF 7
