REMARK  4 active torsions:
REMARK  status: ('A' for Active; 'I' for Inactive)
REMARK    1  A    between atoms: C4_4  and  C7_7 
REMARK    2  A    between atoms: C7_7  and  N1_8 
REMARK    3  A    between atoms: N2_11  and  C12_14 
REMARK    4  A    between atoms: C12_14  and  C13_15 
ROOT
ATOM      1  N1  <0> d   1       4.153  -0.953   1.342  0.00  0.00    -0.064 N 
ATOM      2  C8  <0> d   1       3.207  -1.861   2.004  0.00  0.00     0.265 C 
ATOM      3  C9  <0> d   1       3.657  -2.102   3.447  0.00  0.00     0.300 C 
ATOM      4  N2  <0> d   1       5.005  -2.688   3.445  0.00  0.00     0.096 N 
ATOM      5  C10 <0> d   1       5.958  -1.801   2.763  0.00  0.00     0.300 C 
ATOM      6  C11 <0> d   1       5.489  -1.562   1.326  0.00  0.00     0.265 C 
ATOM      7  H22 <0> d   1       4.188  -0.079   1.844  0.00  0.00     0.280 HD
ENDROOT
BRANCH   4   8
ATOM      8  C12 <0> d   1       5.450  -2.988   4.812  0.00  0.00     0.312 C 
BRANCH   8   9
ATOM      9  C13 <0> d   1       6.716  -3.804   4.761  0.00  0.00    -0.011 A 
ATOM     10  C17 <0> d   1       6.667  -5.262   4.616  0.00  0.00     0.008 A 
ATOM     11  C16 <0> d   1       7.873  -5.983   4.567  0.00  0.00     0.090 A 
ATOM     12  C18 <0> d   1       5.446  -5.935   4.521  0.00  0.00     0.038 A 
ATOM     13  O2  <0> d   1       9.051  -5.330   4.665  0.00  0.00    -0.275 OA
ATOM     14  C21 <0> d   1       7.837  -7.364   4.425  0.00  0.00     0.040 A 
ATOM     15  C15 <0> d   1       9.103  -3.996   4.803  0.00  0.00     0.288 A 
ATOM     16  C14 <0> d   1       7.933  -3.209   4.853  0.00  0.00     0.092 A 
ATOM     17  O1  <0> d   1      10.189  -3.451   4.887  0.00  0.00    -0.260 OA
ATOM     18  C20 <0> d   1       6.626  -8.017   4.343  0.00  0.00     0.026 A 
ATOM     19  C19 <0> d   1       5.434  -7.306   4.385  0.00  0.00     0.035 A 
ATOM     20 Cl1  <0> d   1       3.921  -8.149   4.266  0.00  0.00    -0.084 Cl
ENDBRANCH   8   9
ENDBRANCH   4   8
BRANCH   1  21
ATOM     21  C7  <0> d   1       3.711  -0.707  -0.038  0.00  0.00     0.273 C 
BRANCH  21  22
ATOM     22  C4  <0> d   1       2.396   0.029  -0.020  0.00  0.00    -0.033 A 
ATOM     23  C3  <0> d   1       2.377   1.411  -0.013  0.00  0.00     0.009 A 
ATOM     24  C2  <0> d   1       1.171   2.086   0.002  0.00  0.00     0.001 A 
ATOM     25  C1  <0> d   1      -0.017   1.378   0.010  0.00  0.00     0.000 A 
ATOM     26  C6  <0> d   1       0.002  -0.004   0.002  0.00  0.00     0.001 A 
ATOM     27  C5  <0> d   1       1.208  -0.679  -0.012  0.00  0.00     0.009 A 
ENDBRANCH  21  22
ENDBRANCH   1  21
TORSDOF 4
