REMARK  8 active torsions:
REMARK  status: ('A' for Active; 'I' for Inactive)
REMARK    1  A    between atoms: C2_2  and  N1_3 
REMARK    2  A    between atoms: C4_5  and  C12_14 
REMARK    3  A    between atoms: C9_10  and  O1_12 
REMARK    4  A    between atoms: C18_21  and  O4_31 
REMARK    5  A    between atoms: C19_22  and  C21_25 
REMARK    6  A    between atoms: C21_25  and  N2_26 
REMARK    7  A    between atoms: N2_26  and  C22_27 
REMARK    8  A    between atoms: N2_26  and  C24_29 
ROOT
ATOM      1  C12 <0> d   1      -0.885   4.755  -0.603  0.00  0.00     0.055 C 
ATOM      2  C13 <0> d   1      -0.145   3.615  -0.701  0.00  0.00     0.128 A 
ATOM      3  C14 <0> d   1       1.229   3.545  -1.050  0.00  0.00     0.218 A 
ATOM      4  O2  <0> d   1       1.974   4.473  -1.318  0.00  0.00    -0.284 OA
ATOM      5  C15 <0> d   1       1.563   2.110  -1.019  0.00  0.00     0.051 A 
ATOM      6  C16 <0> d   1       2.732   1.390  -1.264  0.00  0.00     0.021 A 
ATOM      7  C17 <0> d   1       2.728   0.028  -1.152  0.00  0.00     0.038 A 
ATOM      8  C18 <0> d   1       1.561  -0.643  -0.795  0.00  0.00     0.076 A 
ATOM      9  C19 <0> d   1       0.392   0.059  -0.550  0.00  0.00     0.036 A 
ATOM     10  C20 <0> d   1       0.380   1.443  -0.659  0.00  0.00     0.101 A 
ATOM     11  O3  <0> d   1      -0.599   2.357  -0.486  0.00  0.00    -0.305 OA
ENDROOT
BRANCH   1  12
ATOM     12  C4  <0> d   1      -2.296   4.681  -0.232  0.00  0.00    -0.005 A 
ATOM     13  C3  <0> d   1      -3.019   3.541   0.048  0.00  0.00     0.103 A 
ATOM     14  N1  <0> d   1      -4.296   3.879   0.351  0.00  0.00    -0.356 N 
ATOM     15  C6  <0> d   1      -4.465   5.248   0.282  0.00  0.00     0.045 A 
ATOM     16  C5  <0> d   1      -3.231   5.813  -0.077  0.00  0.00     0.005 A 
ATOM     17  C7  <0> d   1      -5.560   6.079   0.498  0.00  0.00     0.033 A 
ATOM     18  C10 <0> d   1      -3.109   7.191  -0.227  0.00  0.00     0.051 A 
ATOM     19  C9  <0> d   1      -4.208   8.002  -0.009  0.00  0.00     0.069 A 
ATOM     20  C8  <0> d   1      -5.429   7.443   0.352  0.00  0.00     0.039 A 
BRANCH  14  21
ATOM     21  C2  <0> d   1      -5.351   2.924   0.703  0.00  0.00     0.124 C 
ATOM     22  C1  <0> d   1      -6.159   2.572  -0.548  0.00  0.00     0.027 C 
ENDBRANCH  14  21
BRANCH  19  23
ATOM     23  O1  <0> d   1      -4.094   9.350  -0.149  0.00  0.00    -0.356 OA
ATOM     24  C11 <0> d   1      -5.268  10.129   0.091  0.00  0.00     0.210 C 
ENDBRANCH  19  23
ENDBRANCH   1  12
BRANCH   9  25
ATOM     25  C21 <0> d   1      -0.864  -0.679  -0.166  0.00  0.00     0.279 C 
BRANCH  25  26
ATOM     26  N2  <0> d   1      -1.618  -1.027  -1.378  0.00  0.00    -0.068 N 
ATOM     27  H28 <0> d   1      -0.932  -1.543  -2.066  0.00  0.00     0.280 HD
BRANCH  26  28
ATOM     28  C22 <0> d   1      -2.720  -1.947  -1.067  0.00  0.00     0.231 C 
ATOM     29  C23 <0> d   1      -2.161  -3.351  -0.831  0.00  0.00     0.034 C 
ENDBRANCH  26  28
BRANCH  26  30
ATOM     30  C24 <0> d   1      -2.114   0.179  -2.054  0.00  0.00     0.231 C 
ATOM     31  C25 <0> d   1      -2.542  -0.175  -3.480  0.00  0.00     0.034 C 
ENDBRANCH  26  30
ENDBRANCH  25  26
ENDBRANCH   9  25
BRANCH   8  32
ATOM     32  O4  <0> d   1       1.569  -1.996  -0.687  0.00  0.00    -0.360 OA
ATOM     33  H29 <0> d   1       0.650  -2.531  -0.406  0.00  0.00     0.217 HD
ENDBRANCH   8  32
TORSDOF 8
