REMARK  3 active torsions:
REMARK  status: ('A' for Active; 'I' for Inactive)
REMARK    1  A    between atoms: C7_8  and  C8_10 
REMARK    2  A    between atoms: C16_20  and  C17_21 
REMARK    3  A    between atoms: C17_21  and  N2_22 
ROOT
ATOM      1  C8  <0> d   1      -1.216   1.714   0.017  0.00  0.00     0.073 A 
ATOM      2  C9  <0> d   1      -0.013   1.076   0.008  0.00  0.00     0.161 A 
ATOM      3  O1  <0> d   1       1.148   1.733   0.000  0.00  0.00    -0.320 OA
ATOM      4  C10 <0> d   1       1.238   3.078   0.006  0.00  0.00     0.100 A 
ATOM      5  C11 <0> d   1       0.075   3.868   0.021  0.00  0.00     0.050 A 
ATOM      6  C12 <0> d   1      -1.233   3.189   0.030  0.00  0.00     0.199 A 
ATOM      7  O2  <0> d   1      -2.278   3.815   0.043  0.00  0.00    -0.286 OA
ATOM      8  C13 <0> d   1       0.168   5.260   0.026  0.00  0.00     0.021 A 
ATOM      9  C14 <0> d   1       1.396   5.858   0.017  0.00  0.00     0.041 A 
ATOM     10  C15 <0> d   1       2.554   5.085   0.002  0.00  0.00     0.118 A 
ATOM     11  C16 <0> d   1       2.479   3.702  -0.003  0.00  0.00     0.039 A 
ATOM     12  O3  <0> d   1       3.768   5.692  -0.007  0.00  0.00    -0.191 OA
ENDROOT
BRANCH   1  13
ATOM     13  C7  <0> d   1      -2.476   0.946   0.020  0.00  0.00     0.115 A 
ATOM     14  N1  <0> d   1      -2.647  -0.359   0.014  0.00  0.00    -0.239 NA
ATOM     15  C5  <0> d   1      -3.869  -0.928   0.017  0.00  0.00     0.075 A 
ATOM     16  C4  <0> d   1      -4.964  -0.032   0.027  0.00  0.00     0.035 A 
ATOM     17  C6  <0> d   1      -4.191  -2.306   0.012  0.00  0.00     0.033 A 
ATOM     18  C3  <0> d   1      -6.269  -0.459   0.032  0.00  0.00     0.021 A 
ATOM     19  S1  <0> d   1      -4.158   1.551   0.039  0.00  0.00    -0.067 SA
ATOM     20  C2  <0> d   1      -6.540  -1.815   0.028  0.00  0.00     0.002 A 
ATOM     21  C1  <0> d   1      -5.487  -2.719   0.018  0.00  0.00     0.002 A 
ENDBRANCH   1  13
BRANCH  11  22
ATOM     22  C17 <0> d   1       3.739   2.876  -0.018  0.00  0.00     0.279 C 
BRANCH  22  23
ATOM     23  N2  <0> d   1       4.136   2.614  -1.408  0.00  0.00    -0.067 N 
ATOM     24  C22 <0> d   1       5.477   2.020  -1.470  0.00  0.00     0.235 C 
ATOM     25  C21 <0> d   1       5.915   1.896  -2.931  0.00  0.00     0.028 C 
ATOM     26  C20 <0> d   1       4.913   1.018  -3.686  0.00  0.00     0.003 C 
ATOM     27  C19 <0> d   1       3.516   1.633  -3.566  0.00  0.00     0.028 C 
ATOM     28  C18 <0> d   1       3.148   1.765  -2.086  0.00  0.00     0.235 C 
ATOM     29  H20 <0> d   1       4.171   3.577  -1.939  0.00  0.00     0.280 HD
ENDBRANCH  22  23
ENDBRANCH  11  22
TORSDOF 3
