REMARK  2 active torsions:
REMARK  status: ('A' for Active; 'I' for Inactive)
REMARK    1  A    between atoms: C5_5  and  C7_7 
REMARK    2  A    between atoms: C9_9  and  C10_13 
ROOT
ATOM      1  C7  <0> d   1       1.248  -2.162  -0.022  0.00  0.00     0.064 A 
ATOM      2  C8  <0> d   1       0.427  -2.987   0.689  0.00  0.00     0.066 A 
ATOM      3  C9  <0> d   1       0.789  -4.312   0.392  0.00  0.00     0.092 A 
ATOM      4  N1  <0> d   1       1.789  -4.286  -0.464  0.00  0.00    -0.174 NA
ATOM      5  N2  <0> d   1       2.095  -2.948  -0.747  0.00  0.00    -0.277 N 
ATOM      6  H1  <0> d   1       2.788  -2.636  -1.349  0.00  0.00     0.189 HD
ENDROOT
BRANCH   3   7
ATOM      7  C10 <0> d   1       0.153  -5.532   0.948  0.00  0.00     0.032 A 
ATOM      8  C15 <0> d   1       0.611  -6.797   0.568  0.00  0.00     0.119 A 
ATOM      9  C14 <0> d   1       0.016  -7.932   1.096  0.00  0.00     0.042 A 
ATOM     10  O1  <0> d   1       1.640  -6.914  -0.311  0.00  0.00    -0.191 OA
ATOM     11  C13 <0> d   1      -1.035  -7.812   1.986  0.00  0.00     0.022 A 
ATOM     12  C12 <0> d   1      -1.495  -6.561   2.359  0.00  0.00     0.012 A 
ATOM     13  C11 <0> d   1      -0.906  -5.422   1.845  0.00  0.00     0.036 A 
ATOM     14 Br1  <0> d   1      -2.933  -6.410   3.578  0.00  0.00    -0.051 Br
ENDBRANCH   3   7
BRANCH   1  15
ATOM     15  C5  <0> d   1       1.221  -0.682  -0.013  0.00  0.00     0.014 A 
ATOM     16  C4  <0> d   1       2.415   0.041  -0.021  0.00  0.00     0.046 A 
ATOM     17  C3  <0> d   1       2.382   1.421  -0.013  0.00  0.00     0.025 A 
ATOM     18 Cl1  <0> d   1       3.937  -0.794  -0.040  0.00  0.00    -0.083 Cl
ATOM     19  C2  <0> d   1       1.170   2.087   0.002  0.00  0.00     0.002 A 
ATOM     20  C1  <0> d   1      -0.017   1.375   0.010  0.00  0.00     0.001 A 
ATOM     21  C6  <0> d   1       0.002  -0.004   0.002  0.00  0.00     0.015 A 
ENDBRANCH   1  15
TORSDOF 2
