REMARK  4 active torsions:
REMARK  status: ('A' for Active; 'I' for Inactive)
REMARK    1  A    between atoms: O1_2  and  C2_3 
REMARK    2  A    between atoms: C4_5  and  O2_6 
REMARK    3  A    between atoms: C5_7  and  C6_8 
REMARK    4  A    between atoms: C7_9  and  C10_14 
ROOT
ATOM      1  C6  <0> d   1       2.711  -2.464  -4.284  0.00  0.00     0.083 A 
ATOM      2  C7  <0> d   1       2.989  -1.715  -5.445  0.00  0.00     0.021 A 
ATOM      3  C8  <0> d   1       3.390  -2.404  -6.589  0.00  0.00     0.132 A 
ATOM      4  N1  <0> d   1       3.493  -3.723  -6.542  0.00  0.00    -0.253 NA
ATOM      5  C9  <0> d   1       3.224  -4.390  -5.437  0.00  0.00     0.233 A 
ATOM      6  N2  <0> d   1       2.846  -3.788  -4.328  0.00  0.00    -0.240 NA
ENDROOT
BRANCH   1   7
ATOM      7  C5  <0> d   1       2.282  -1.791  -3.038  0.00  0.00     0.027 A 
ATOM      8  C4  <0> d   1       1.138  -2.231  -2.360  0.00  0.00     0.081 A 
ATOM      9  C3  <0> d   1       0.742  -1.597  -1.196  0.00  0.00     0.074 A 
ATOM     10  C2  <0> d   1       1.477  -0.529  -0.703  0.00  0.00     0.070 A 
ATOM     11  C17 <0> d   1       2.609  -0.088  -1.378  0.00  0.00     0.038 A 
ATOM     12  C16 <0> d   1       3.015  -0.716  -2.535  0.00  0.00     0.019 A 
BRANCH   8  13
ATOM     13  O2  <0> d   1       0.419  -3.277  -2.844  0.00  0.00    -0.360 OA
ATOM     14  H14 <0> d   1      -0.284  -3.021  -3.457  0.00  0.00     0.217 HD
ENDBRANCH   8  13
BRANCH  10  15
ATOM     15  O1  <0> d   1       1.087   0.091   0.441  0.00  0.00    -0.356 OA
ATOM     16  C1  <0> d   1       1.886   1.188   0.889  0.00  0.00     0.210 C 
ENDBRANCH  10  15
ENDBRANCH   1   7
BRANCH   2  17
ATOM     17  C10 <0> d   1       2.859  -0.238  -5.450  0.00  0.00    -0.022 A 
ATOM     18  C15 <0> d   1       3.943   0.558  -5.817  0.00  0.00     0.012 A 
ATOM     19  C14 <0> d   1       3.815   1.932  -5.826  0.00  0.00     0.001 A 
ATOM     20  C13 <0> d   1       2.617   2.520  -5.460  0.00  0.00     0.000 A 
ATOM     21  C12 <0> d   1       1.540   1.735  -5.090  0.00  0.00     0.001 A 
ATOM     22  C11 <0> d   1       1.655   0.359  -5.083  0.00  0.00     0.012 A 
ENDBRANCH   2  17
TORSDOF 4
