REMARK  8 active torsions:
REMARK  status: ('A' for Active; 'I' for Inactive)
REMARK    1  A    between atoms: C3_3  and  C19_26 
REMARK    2  A    between atoms: C4_4  and  C5_8 
REMARK    3  A    between atoms: C8_11  and  O2_15 
REMARK    4  A    between atoms: O2_15  and  C11_16 
REMARK    5  A    between atoms: C11_16  and  C12_17 
REMARK    6  A    between atoms: C12_17  and  N3_18 
REMARK    7  A    between atoms: C22_29  and  O5_34 
REMARK    8  A    between atoms: C23_30  and  O4_32 
ROOT
ATOM      1  C5  <0> d   1      -0.153  -3.232   1.659  0.00  0.00     0.032 A 
ATOM      2  C6  <0> d   1      -0.258  -2.997   3.029  0.00  0.00     0.019 A 
ATOM      3  C7  <0> d   1      -0.345  -4.059   3.905  0.00  0.00     0.038 A 
ATOM      4  C8  <0> d   1      -0.330  -5.362   3.427  0.00  0.00     0.071 A 
ATOM      5  C9  <0> d   1      -0.226  -5.604   2.065  0.00  0.00     0.077 A 
ATOM      6  C10 <0> d   1      -0.143  -4.545   1.178  0.00  0.00     0.122 A 
ATOM      7  O1  <0> d   1      -0.047  -4.780  -0.157  0.00  0.00    -0.191 OA
ENDROOT
BRANCH   1   8
ATOM      8  C4  <0> d   1      -0.059  -2.093   0.715  0.00  0.00     0.103 A 
ATOM      9  C3  <0> d   1       0.796  -0.970   0.844  0.00  0.00     0.029 A 
ATOM     10  C2  <0> d   1       0.574  -0.160  -0.229  0.00  0.00     0.037 A 
ATOM     11  C1  <0> d   1       1.262   1.151  -0.510  0.00  0.00     0.070 C 
ATOM     12  N2  <0> d   1      -0.376  -0.739  -0.993  0.00  0.00    -0.281 N 
ATOM     13  N1  <0> d   1      -0.754  -1.945  -0.392  0.00  0.00    -0.173 NA
ATOM     14  H1  <0> d   1      -0.734  -0.381  -1.821  0.00  0.00     0.189 HD
BRANCH   9  15
ATOM     15  C19 <0> d   1       1.758  -0.721   1.947  0.00  0.00    -0.019 A 
ATOM     16  C24 <0> d   1       1.552   0.340   2.827  0.00  0.00     0.052 A 
ATOM     17  C23 <0> d   1       2.447   0.565   3.857  0.00  0.00     0.102 A 
ATOM     18  C22 <0> d   1       3.558  -0.261   4.005  0.00  0.00     0.101 A 
ATOM     19  C21 <0> d   1       3.766  -1.313   3.126  0.00  0.00     0.040 A 
ATOM     20  C20 <0> d   1       2.872  -1.544   2.100  0.00  0.00     0.015 A 
BRANCH  17  21
ATOM     21  O4  <0> d   1       2.246   1.595   4.721  0.00  0.00    -0.353 OA
ATOM     22  C25 <0> d   1       1.085   2.402   4.509  0.00  0.00     0.210 C 
ENDBRANCH  17  21
BRANCH  18  23
ATOM     23  O5  <0> d   1       4.441  -0.037   5.015  0.00  0.00    -0.353 OA
ATOM     24  C26 <0> d   1       5.558  -0.923   5.109  0.00  0.00     0.210 C 
ENDBRANCH  18  23
ENDBRANCH   9  15
ENDBRANCH   1   8
BRANCH   4  25
ATOM     25  O2  <0> d   1      -0.416  -6.404   4.295  0.00  0.00    -0.349 OA
BRANCH  25  26
ATOM     26  C11 <0> d   1      -0.395  -7.719   3.736  0.00  0.00     0.206 C 
BRANCH  26  27
ATOM     27  C12 <0> d   1      -0.501  -8.753   4.858  0.00  0.00     0.299 C 
BRANCH  27  28
ATOM     28  N3  <0> d   1      -1.810  -8.631   5.514  0.00  0.00     0.095 N 
ATOM     29  C16 <0> d   1      -1.861  -9.438   6.742  0.00  0.00     0.303 C 
ATOM     30  C15 <0> d   1      -3.217  -9.236   7.423  0.00  0.00     0.146 C 
ATOM     31  O3  <0> d   1      -4.261  -9.577   6.506  0.00  0.00    -0.378 OA
ATOM     32  C17 <0> d   1      -3.309 -10.133   8.658  0.00  0.00     0.041 C 
ATOM     33  C14 <0> d   1      -4.241  -8.809   5.299  0.00  0.00     0.146 C 
ATOM     34  C13 <0> d   1      -2.895  -9.007   4.597  0.00  0.00     0.303 C 
ATOM     35  C18 <0> d   1      -5.371  -9.274   4.379  0.00  0.00     0.041 C 
ENDBRANCH  27  28
ENDBRANCH  26  27
ENDBRANCH  25  26
ENDBRANCH   4  25
TORSDOF 8
