REMARK  5 active torsions:
REMARK  status: ('A' for Active; 'I' for Inactive)
REMARK    1  A    between atoms: C2_2  and  O1_3 
REMARK    2  A    between atoms: O1_3  and  C3_4 
REMARK    3  A    between atoms: C8_9  and  C9_10 
REMARK    4  A    between atoms: C16_18  and  C18_21 
REMARK    5  A    between atoms: C18_21  and  N1_22 
ROOT
ATOM      1  C9  <0> d   1      -1.384   4.659   0.040  0.00  0.00     0.055 C 
ATOM      2  C10 <0> d   1      -0.593   3.587  -0.223  0.00  0.00     0.128 A 
ATOM      3  C11 <0> d   1       0.877   3.582  -0.260  0.00  0.00     0.218 A 
ATOM      4  O2  <0> d   1       1.631   4.519  -0.065  0.00  0.00    -0.284 OA
ATOM      5  C12 <0> d   1       1.233   2.189  -0.586  0.00  0.00     0.051 A 
ATOM      6  C13 <0> d   1       2.452   1.532  -0.765  0.00  0.00     0.021 A 
ATOM      7  C14 <0> d   1       2.469   0.201  -1.068  0.00  0.00     0.041 A 
ATOM      8  C15 <0> d   1       1.274  -0.502  -1.200  0.00  0.00     0.118 A 
ATOM      9  C16 <0> d   1       0.058   0.136  -1.024  0.00  0.00     0.041 A 
ATOM     10  C17 <0> d   1       0.022   1.490  -0.715  0.00  0.00     0.101 A 
ATOM     11  O3  <0> d   1      -1.013   2.332  -0.504  0.00  0.00    -0.305 OA
ATOM     12  O5  <0> d   1       1.302  -1.825  -1.502  0.00  0.00    -0.191 OA
ENDROOT
BRANCH   1  13
ATOM     13  C8  <0> d   1      -2.843   4.534  -0.058  0.00  0.00     0.000 A 
ATOM     14  C3  <0> d   1      -3.647   5.684  -0.145  0.00  0.00     0.079 A 
ATOM     15  C4  <0> d   1      -5.023   5.553  -0.242  0.00  0.00     0.037 A 
ATOM     16  C5  <0> d   1      -5.602   4.298  -0.242  0.00  0.00     0.003 A 
ATOM     17  C6  <0> d   1      -4.814   3.161  -0.150  0.00  0.00     0.001 A 
ATOM     18  C7  <0> d   1      -3.444   3.270  -0.059  0.00  0.00     0.014 A 
BRANCH  14  19
ATOM     19  O1  <0> d   1      -3.078   6.915  -0.139  0.00  0.00    -0.351 OA
BRANCH  19  20
ATOM     20  C2  <0> d   1      -3.958   8.037  -0.231  0.00  0.00     0.171 C 
ATOM     21  C1  <0> d   1      -3.141   9.330  -0.210  0.00  0.00     0.034 C 
ENDBRANCH  19  20
ENDBRANCH  14  19
ENDBRANCH   1  13
BRANCH   9  22
ATOM     22  C18 <0> d   1      -1.227  -0.638  -1.169  0.00  0.00     0.317 C 
BRANCH  22  23
ATOM     23  N1  <0> d   1      -1.678  -0.582  -2.566  0.00  0.00     0.097 N 
ATOM     24  C22 <0> d   1      -2.791  -1.514  -2.798  0.00  0.00     0.299 C 
ATOM     25  C21 <0> d   1      -3.188  -1.467  -4.276  0.00  0.00     0.198 C 
ATOM     26  O4  <0> d   1      -3.524  -0.123  -4.632  0.00  0.00    -0.388 OA
ATOM     27  C20 <0> d   1      -2.462   0.811  -4.419  0.00  0.00     0.198 C 
ATOM     28  C19 <0> d   1      -2.057   0.787  -2.943  0.00  0.00     0.299 C 
ENDBRANCH  22  23
ENDBRANCH   9  22
TORSDOF 5
