REMARK  4 active torsions:
REMARK  status: ('A' for Active; 'I' for Inactive)
REMARK    1  A    between atoms: C2_2  and  N1_3 
REMARK    2  A    between atoms: N2_6  and  C7_9 
REMARK    3  A    between atoms: C7_9  and  C8_10 
REMARK    4  A    between atoms: C15_19  and  O3_22 
ROOT
ATOM      1  C8  <0> d   1       1.396  -2.376  -0.084  0.00  0.00    -0.014 A 
ATOM      2  C9  <0> d   1       1.655  -1.138   0.411  0.00  0.00     0.092 A 
ATOM      3  C10 <0> d   1       2.960  -0.609   0.331  0.00  0.00     0.288 A 
ATOM      4  O1  <0> d   1       3.178   0.502   0.779  0.00  0.00    -0.260 OA
ATOM      5  O2  <0> d   1       3.968  -1.300  -0.224  0.00  0.00    -0.274 OA
ATOM      6  C11 <0> d   1       3.778  -2.535  -0.735  0.00  0.00     0.099 A 
ATOM      7  C12 <0> d   1       2.501  -3.124  -0.690  0.00  0.00     0.007 A 
ATOM      8  C13 <0> d   1       2.300  -4.404  -1.218  0.00  0.00     0.017 A 
ATOM      9  C14 <0> d   1       3.346  -5.079  -1.777  0.00  0.00     0.038 A 
ATOM     10  C15 <0> d   1       4.614  -4.501  -1.825  0.00  0.00     0.074 A 
ATOM     11  C16 <0> d   1       4.830  -3.235  -1.306  0.00  0.00     0.006 A 
ATOM     12  C17 <0> d   1       6.205  -2.620  -1.362  0.00  0.00     0.054 C 
ENDROOT
BRANCH   1  13
ATOM     13  C7  <0> d   1       0.011  -2.965  -0.013  0.00  0.00     0.274 C 
BRANCH  13  14
ATOM     14  N2  <0> d   1      -0.608  -2.923  -1.345  0.00  0.00    -0.064 N 
ATOM     15  C4  <0> d   1      -1.781  -3.805  -1.408  0.00  0.00     0.265 C 
ATOM     16  C3  <0> d   1      -2.348  -3.794  -2.830  0.00  0.00     0.300 C 
ATOM     17  N1  <0> d   1      -2.707  -2.418  -3.201  0.00  0.00     0.091 N 
ATOM     18  C6  <0> d   1      -1.534  -1.536  -3.137  0.00  0.00     0.300 C 
ATOM     19  C5  <0> d   1      -0.967  -1.547  -1.716  0.00  0.00     0.265 C 
ATOM     20  H23 <0> d   1       0.132  -3.288  -2.072  0.00  0.00     0.280 HD
BRANCH  17  21
ATOM     21  C2  <0> d   1      -3.326  -2.377  -4.532  0.00  0.00     0.268 C 
ATOM     22  C1  <0> d   1      -3.909  -0.984  -4.780  0.00  0.00     0.037 C 
ENDBRANCH  17  21
ENDBRANCH  13  14
ENDBRANCH   1  13
BRANCH  10  23
ATOM     23  O3  <0> d   1       5.644  -5.185  -2.384  0.00  0.00    -0.360 OA
ATOM     24  H22 <0> d   1       6.647  -4.734  -2.424  0.00  0.00     0.217 HD
ENDBRANCH  10  23
TORSDOF 4
