REMARK  6 active torsions:
REMARK  status: ('A' for Active; 'I' for Inactive)
REMARK    1  A    between atoms: C2_2  and  N1_3 
REMARK    2  A    between atoms: C4_5  and  C12_14 
REMARK    3  A    between atoms: C9_10  and  O1_12 
REMARK    4  A    between atoms: C18_21  and  O4_33 
REMARK    5  A    between atoms: C19_22  and  C21_25 
REMARK    6  A    between atoms: C21_25  and  N2_26 
ROOT
ATOM      1  C12 <0> d   1       1.851   4.819   0.154  0.00  0.00     0.055 C 
ATOM      2  C13 <0> d   1       1.335   6.080   0.175  0.00  0.00     0.128 A 
ATOM      3  C14 <0> d   1       2.087   7.284   0.227  0.00  0.00     0.218 A 
ATOM      4  O2  <0> d   1       3.301   7.398   0.262  0.00  0.00    -0.284 OA
ATOM      5  C15 <0> d   1       1.085   8.364   0.228  0.00  0.00     0.051 A 
ATOM      6  C16 <0> d   1       1.174   9.756   0.264  0.00  0.00     0.021 A 
ATOM      7  C17 <0> d   1       0.035  10.510   0.259  0.00  0.00     0.038 A 
ATOM      8  C18 <0> d   1      -1.214   9.895   0.218  0.00  0.00     0.076 A 
ATOM      9  C19 <0> d   1      -1.317   8.514   0.182  0.00  0.00     0.036 A 
ATOM     10  C20 <0> d   1      -0.169   7.733   0.186  0.00  0.00     0.101 A 
ATOM     11  O3  <0> d   1       0.018   6.396   0.156  0.00  0.00    -0.305 OA
ENDROOT
BRANCH   1  12
ATOM     12  C4  <0> d   1       0.957   3.664   0.106  0.00  0.00    -0.005 A 
ATOM     13  C3  <0> d   1      -0.421   3.686   0.078  0.00  0.00     0.103 A 
ATOM     14  N1  <0> d   1      -0.892   2.416   0.030  0.00  0.00    -0.356 N 
ATOM     15  C6  <0> d   1       0.152   1.511   0.035  0.00  0.00     0.045 A 
ATOM     16  C5  <0> d   1       1.349   2.242   0.078  0.00  0.00     0.005 A 
ATOM     17  C7  <0> d   1       0.200   0.121   0.000  0.00  0.00     0.033 A 
ATOM     18  C10 <0> d   1       2.574   1.579   0.086  0.00  0.00     0.051 A 
ATOM     19  C9  <0> d   1       2.603   0.197   0.052  0.00  0.00     0.069 A 
ATOM     20  C8  <0> d   1       1.416  -0.527   0.009  0.00  0.00     0.039 A 
BRANCH  14  21
ATOM     21  C2  <0> d   1      -2.311   2.054  -0.016  0.00  0.00     0.124 C 
ATOM     22  C1  <0> d   1      -2.811   1.769   1.402  0.00  0.00     0.027 C 
ENDBRANCH  14  21
BRANCH  19  23
ATOM     23  O1  <0> d   1       3.796  -0.456   0.060  0.00  0.00    -0.356 OA
ATOM     24  C11 <0> d   1       3.754  -1.884   0.023  0.00  0.00     0.210 C 
ENDBRANCH  19  23
ENDBRANCH   1  12
BRANCH   9  25
ATOM     25  C21 <0> d   1      -2.674   7.859   0.138  0.00  0.00     0.279 C 
BRANCH  25  26
ATOM     26  N2  <0> d   1      -3.143   7.612   1.507  0.00  0.00    -0.063 N 
ATOM     27  C26 <0> d   1      -4.581   7.314   1.525  0.00  0.00     0.184 C 
ATOM     28  C25 <0> d   1      -5.063   7.206   2.973  0.00  0.00     0.033 C 
ATOM     29  C27 <0> d   1      -5.343   8.437   0.817  0.00  0.00     0.040 C 
ATOM     30  C24 <0> d   1      -4.285   6.095   3.683  0.00  0.00     0.004 C 
ATOM     31  C23 <0> d   1      -2.787   6.404   3.609  0.00  0.00     0.028 C 
ATOM     32  C22 <0> d   1      -2.371   6.536   2.142  0.00  0.00     0.235 C 
ATOM     33  H30 <0> d   1      -2.983   8.529   2.092  0.00  0.00     0.280 HD
ENDBRANCH  25  26
ENDBRANCH   9  25
BRANCH   8  34
ATOM     34  O4  <0> d   1      -2.339  10.654   0.214  0.00  0.00    -0.360 OA
ATOM     35  H31 <0> d   1      -3.328  10.173   0.182  0.00  0.00     0.217 HD
ENDBRANCH   8  34
TORSDOF 6
