REMARK  5 active torsions:
REMARK  status: ('A' for Active; 'I' for Inactive)
REMARK    1  A    between atoms: C3_3  and  O4_24 
REMARK    2  A    between atoms: N1_14  and  C13_17 
REMARK    3  A    between atoms: C13_17  and  C14_18 
REMARK    4  A    between atoms: O4_24  and  C19_25 
REMARK    5  A    between atoms: C23_29  and  O5_31 
ROOT
ATOM      1  C1  <0> d   1      -0.020   1.482  -0.113  0.00  0.00     0.080 C 
ATOM      2  C2  <0> d   1      -0.005  -0.024  -0.060  0.00  0.00     0.087 A 
ATOM      3  C3  <0> d   1      -1.173  -0.676   0.104  0.00  0.00     0.156 A 
ATOM      4  C4  <0> d   1      -1.182  -2.099   0.155  0.00  0.00     0.221 A 
ATOM      5  O1  <0> d   1      -2.220  -2.723   0.304  0.00  0.00    -0.284 OA
ATOM      6  C5  <0> d   1       0.114  -2.785   0.022  0.00  0.00     0.052 A 
ATOM      7  C6  <0> d   1       0.208  -4.177   0.059  0.00  0.00     0.021 A 
ATOM      8  C7  <0> d   1       1.428  -4.776  -0.068  0.00  0.00     0.038 A 
ATOM      9  C8  <0> d   1       2.582  -4.008  -0.235  0.00  0.00     0.082 A 
ATOM     10  C9  <0> d   1       2.504  -2.628  -0.275  0.00  0.00     0.038 A 
ATOM     11  C10 <0> d   1       1.270  -2.003  -0.146  0.00  0.00     0.101 A 
ATOM     12  O2  <0> d   1       1.168  -0.659  -0.184  0.00  0.00    -0.311 OA
ATOM     13  C11 <0> d   1       3.742  -1.788  -0.463  0.00  0.00     0.320 C 
ATOM     14  N1  <0> d   1       4.934  -2.595  -0.167  0.00  0.00     0.121 N 
ATOM     15  C12 <0> d   1       4.868  -3.879  -0.883  0.00  0.00     0.448 C 
ATOM     16  O3  <0> d   1       3.779  -4.640  -0.355  0.00  0.00    -0.321 OA
ENDROOT
BRANCH   3  17
ATOM     17  O4  <0> d   1      -2.337   0.022   0.219  0.00  0.00    -0.304 OA
BRANCH  17  18
ATOM     18  C19 <0> d   1      -2.987  -0.016   1.412  0.00  0.00     0.079 A 
ATOM     19  C24 <0> d   1      -4.231   0.582   1.543  0.00  0.00     0.074 A 
ATOM     20  C23 <0> d   1      -4.894   0.537   2.760  0.00  0.00     0.070 A 
ATOM     21  C22 <0> d   1      -4.307  -0.096   3.846  0.00  0.00     0.037 A 
ATOM     22  C21 <0> d   1      -3.064  -0.686   3.714  0.00  0.00     0.005 A 
ATOM     23  C20 <0> d   1      -2.404  -0.648   2.502  0.00  0.00     0.037 A 
BRANCH  20  24
ATOM     24  O5  <0> d   1      -6.116   1.118   2.890  0.00  0.00    -0.356 OA
ATOM     25  C25 <0> d   1      -6.738   1.038   4.174  0.00  0.00     0.210 C 
ENDBRANCH  20  24
ENDBRANCH  17  18
ENDBRANCH   3  17
BRANCH  14  26
ATOM     26  C13 <0> d   1       6.162  -1.864  -0.509  0.00  0.00     0.332 C 
BRANCH  26  27
ATOM     27  C14 <0> d   1       7.356  -2.609   0.028  0.00  0.00     0.037 A 
ATOM     28  N2  <0> d   1       7.888  -3.586  -0.680  0.00  0.00    -0.368 N 
ATOM     29  C18 <0> d   1       8.937  -4.261  -0.252  0.00  0.00     0.088 A 
ATOM     30  H23 <0> d   1       7.500  -3.811  -1.540  0.00  0.00     0.165 HD
ATOM     31  C17 <0> d   1       9.513  -3.973   0.971  0.00  0.00     0.017 A 
ATOM     32  C16 <0> d   1       8.978  -2.955   1.746  0.00  0.00     0.003 A 
ATOM     33  C15 <0> d   1       7.879  -2.264   1.261  0.00  0.00     0.027 A 
ENDBRANCH  26  27
ENDBRANCH  14  26
TORSDOF 5
