REMARK  6 active torsions:
REMARK  status: ('A' for Active; 'I' for Inactive)
REMARK    1  A    between atoms: C2_2  and  O1_3 
REMARK    2  A    between atoms: O1_3  and  C3_4 
REMARK       I    between atoms: C3_4  and  N1_6 
REMARK    3  A    between atoms: N2_9  and  C8_12 
REMARK    4  A    between atoms: C8_12  and  C9_13 
REMARK    5  A    between atoms: C10_14  and  O5_33 
REMARK    6  A    between atoms: C16_22  and  C18_24 
ROOT
ATOM      1  C9  <0> d   1       4.801  -5.089  -4.919  0.00  0.00     0.035 A 
ATOM      2  C10 <0> d   1       4.986  -6.128  -4.021  0.00  0.00     0.076 A 
ATOM      3  C11 <0> d   1       4.982  -7.451  -4.459  0.00  0.00     0.038 A 
ATOM      4  C12 <0> d   1       4.810  -7.742  -5.781  0.00  0.00     0.017 A 
ATOM      5  C13 <0> d   1       4.646  -6.703  -6.709  0.00  0.00    -0.000 A 
ATOM      6  C14 <0> d   1       4.612  -5.367  -6.263  0.00  0.00     0.100 A 
ATOM      7  O3  <0> d   1       4.378  -4.363  -7.143  0.00  0.00    -0.273 OA
ATOM      8  C15 <0> d   1       4.737  -4.581  -8.429  0.00  0.00     0.301 C 
ATOM      9  O4  <0> d   1       5.225  -3.695  -9.106  0.00  0.00    -0.259 OA
ATOM     10  C16 <0> d   1       4.518  -5.929  -8.983  0.00  0.00     0.076 C 
ATOM     11  C17 <0> d   1       4.500  -6.988  -8.090  0.00  0.00     0.034 C 
ENDROOT
BRANCH   1  12
ATOM     12  C8  <0> d   1       4.800  -3.662  -4.435  0.00  0.00     0.279 C 
BRANCH  12  13
ATOM     13  N2  <0> d   1       3.433  -3.270  -4.070  0.00  0.00    -0.064 N 
ATOM     14  C5  <0> d   1       3.413  -1.846  -3.712  0.00  0.00     0.255 C 
ATOM     15  C4  <0> d   1       1.969  -1.408  -3.442  0.00  0.00     0.156 C 
ATOM     16  N1  <0> d   1       1.395  -2.298  -2.422  0.00  0.00    -0.325 N 
ATOM     17  C3  <0> d   1       0.776  -1.798  -1.335  0.00  0.00     0.362 C 
ATOM     18  C7  <0> d   1       1.521  -3.751  -2.619  0.00  0.00     0.156 C 
ATOM     19  O2  <0> d   1       0.312  -2.549  -0.500  0.00  0.00    -0.238 OA
ATOM     20  C6  <0> d   1       2.981  -4.078  -2.930  0.00  0.00     0.255 C 
ATOM     21  H24 <0> d   1       2.819  -3.427  -4.856  0.00  0.00     0.280 HD
BRANCH  17  22
ATOM     22  O1  <0> d   1       0.671  -0.465  -1.174  0.00  0.00    -0.304 OA
BRANCH  22  23
ATOM     23  C2  <0> d   1       0.002  -0.004   0.002  0.00  0.00     0.176 C 
ATOM     24  C1  <0> d   1      -0.019   1.526   0.010  0.00  0.00     0.034 C 
ENDBRANCH  22  23
ENDBRANCH  17  22
ENDBRANCH  12  13
ENDBRANCH   1  12
BRANCH   2  25
ATOM     25  O5  <0> d   1       5.172  -5.856  -2.704  0.00  0.00    -0.360 OA
ATOM     26  H23 <0> d   1       4.354  -5.817  -2.191  0.00  0.00     0.217 HD
ENDBRANCH   2  25
BRANCH  10  27
ATOM     27  C18 <0> d   1       4.336  -6.143 -10.431  0.00  0.00     0.115 A 
ATOM     28  S1  <0> d   1       4.336  -4.938 -11.751  0.00  0.00    -0.067 SA
ATOM     29  C24 <0> d   1       4.060  -6.073 -13.089  0.00  0.00     0.035 A 
ATOM     30  C19 <0> d   1       3.977  -7.316 -12.418  0.00  0.00     0.075 A 
ATOM     31  C23 <0> d   1       3.929  -5.959 -14.451  0.00  0.00     0.021 A 
ATOM     32  N3  <0> d   1       4.127  -7.269 -11.079  0.00  0.00    -0.239 NA
ATOM     33  C20 <0> d   1       3.750  -8.451 -13.232  0.00  0.00     0.033 A 
ATOM     34  C21 <0> d   1       3.622  -8.327 -14.580  0.00  0.00     0.002 A 
ATOM     35  C22 <0> d   1       3.707  -7.093 -15.210  0.00  0.00     0.002 A 
ENDBRANCH  10  27
TORSDOF 6
