REMARK  5 active torsions:
REMARK  status: ('A' for Active; 'I' for Inactive)
REMARK    1  A    between atoms: C4_4  and  C7_7 
REMARK    2  A    between atoms: C8_8  and  C11_17 
REMARK    3  A    between atoms: C9_12  and  C10_13 
REMARK    4  A    between atoms: C14_20  and  O2_24 
REMARK    5  A    between atoms: C16_22  and  O1_23 
ROOT
ATOM      1  C7  <0> d   1       3.723  -0.646  -0.067  0.00  0.00     0.039 A 
ATOM      2  C8  <0> d   1       4.145  -1.586  -1.041  0.00  0.00     0.103 A 
ATOM      3  N1  <0> d   1       5.317  -2.054  -0.667  0.00  0.00    -0.173 NA
ATOM      4  N2  <0> d   1       5.676  -1.438   0.537  0.00  0.00    -0.272 N 
ATOM      5  H1  <0> d   1       6.492  -1.598   1.035  0.00  0.00     0.189 HD
ATOM      6  C9  <0> d   1       4.695  -0.579   0.886  0.00  0.00     0.147 A 
ENDROOT
BRANCH   2   7
ATOM      7  C11 <0> d   1       3.399  -1.974  -2.262  0.00  0.00     0.029 A 
ATOM      8  C16 <0> d   1       3.249  -3.324  -2.593  0.00  0.00     0.081 A 
ATOM      9  C15 <0> d   1       2.546  -3.680  -3.732  0.00  0.00     0.074 A 
ATOM     10  C14 <0> d   1       2.003  -2.698  -4.547  0.00  0.00     0.068 A 
ATOM     11  C13 <0> d   1       2.157  -1.356  -4.221  0.00  0.00     0.037 A 
ATOM     12  C12 <0> d   1       2.851  -0.993  -3.086  0.00  0.00     0.019 A 
BRANCH   8  13
ATOM     13  O1  <0> d   1       3.786  -4.285  -1.796  0.00  0.00    -0.360 OA
ATOM     14  H10 <0> d   1       3.193  -4.594  -1.098  0.00  0.00     0.217 HD
ENDBRANCH   8  13
BRANCH  10  15
ATOM     15  O2  <0> d   1       1.319  -3.049  -5.666  0.00  0.00    -0.361 OA
ATOM     16  H11 <0> d   1       1.870  -3.124  -6.457  0.00  0.00     0.217 HD
ENDBRANCH  10  15
ENDBRANCH   2   7
BRANCH   1  17
ATOM     17  C4  <0> d   1       2.457   0.127  -0.085  0.00  0.00    -0.021 A 
ATOM     18  C3  <0> d   1       2.484   1.508  -0.269  0.00  0.00     0.012 A 
ATOM     19  C2  <0> d   1       1.304   2.223  -0.286  0.00  0.00     0.001 A 
ATOM     20  C1  <0> d   1       0.095   1.571  -0.120  0.00  0.00     0.000 A 
ATOM     21  C6  <0> d   1       0.062   0.200   0.064  0.00  0.00     0.001 A 
ATOM     22  C5  <0> d   1       1.237  -0.524   0.082  0.00  0.00     0.012 A 
ENDBRANCH   1  17
BRANCH   6  23
ATOM     23  C10 <0> d   1       4.677   0.297   2.112  0.00  0.00     0.434 C 
ATOM     24  F1  <0> d   1       5.848   0.090   2.850  0.00  0.00    -0.165 F 
ATOM     25  F2  <0> d   1       4.601   1.639   1.726  0.00  0.00    -0.165 F 
ATOM     26  F3  <0> d   1       3.566  -0.026   2.899  0.00  0.00    -0.165 F 
ENDBRANCH   6  23
TORSDOF 5
