REMARK  5 active torsions:
REMARK  status: ('A' for Active; 'I' for Inactive)
REMARK    1  A    between atoms: C2_2  and  N1_3 
REMARK    2  A    between atoms: N2_6  and  C7_9 
REMARK    3  A    between atoms: C7_9  and  C8_10 
REMARK    4  A    between atoms: C9_11  and  O3_26 
REMARK    5  A    between atoms: C15_18  and  C16_19 
ROOT
ATOM      1  C8  <0> d   1       1.762  -4.052   4.729  0.00  0.00     0.038 A 
ATOM      2  C9  <0> d   1       0.735  -4.763   5.330  0.00  0.00     0.076 A 
ATOM      3  C10 <0> d   1       0.743  -6.155   5.328  0.00  0.00     0.038 A 
ATOM      4  C11 <0> d   1       1.767  -6.837   4.732  0.00  0.00     0.021 A 
ATOM      5  C12 <0> d   1       2.807  -6.135   4.123  0.00  0.00     0.051 A 
ATOM      6  C13 <0> d   1       2.806  -4.730   4.114  0.00  0.00     0.101 A 
ATOM      7  O1  <0> d   1       3.907  -4.298   3.464  0.00  0.00    -0.305 OA
ATOM      8  C14 <0> d   1       4.659  -5.334   3.022  0.00  0.00     0.128 A 
ATOM      9  C15 <0> d   1       5.831  -5.231   2.331  0.00  0.00     0.060 C 
ATOM     10  C20 <0> d   1       4.029  -6.546   3.412  0.00  0.00     0.218 A 
ATOM     11  O2  <0> d   1       4.411  -7.684   3.191  0.00  0.00    -0.284 OA
ENDROOT
BRANCH   1  12
ATOM     12  C7  <0> d   1       1.741  -2.545   4.737  0.00  0.00     0.317 C 
BRANCH  12  13
ATOM     13  N2  <0> d   1       1.031  -2.059   3.547  0.00  0.00     0.096 N 
ATOM     14  C4  <0> d   1       0.782  -0.613   3.636  0.00  0.00     0.303 C 
ATOM     15  C3  <0> d   1      -0.027  -0.161   2.418  0.00  0.00     0.302 C 
ATOM     16  N1  <0> d   1       0.713  -0.491   1.192  0.00  0.00     0.091 N 
ATOM     17  C6  <0> d   1       0.961  -1.936   1.103  0.00  0.00     0.302 C 
ATOM     18  C5  <0> d   1       1.770  -2.389   2.321  0.00  0.00     0.303 C 
BRANCH  16  19
ATOM     19  C2  <0> d   1       0.002  -0.004   0.002  0.00  0.00     0.268 C 
ATOM     20  C1  <0> d   1      -0.019   1.526   0.010  0.00  0.00     0.037 C 
ENDBRANCH  16  19
ENDBRANCH  12  13
ENDBRANCH   1  12
BRANCH   2  21
ATOM     21  O3  <0> d   1      -0.287  -4.097   5.925  0.00  0.00    -0.360 OA
ATOM     22  H22 <0> d   1      -1.028  -3.905   5.335  0.00  0.00     0.217 HD
ENDBRANCH   2  21
BRANCH   9  23
ATOM     23  C16 <0> d   1       6.356  -3.958   2.018  0.00  0.00     0.007 A 
ATOM     24  S1  <0> d   1       5.699  -2.345   2.401  0.00  0.00    -0.102 SA
ATOM     25  C19 <0> d   1       6.893  -1.396   1.696  0.00  0.00     0.050 A 
ATOM     26  C18 <0> d   1       7.769  -2.292   1.175  0.00  0.00     0.008 A 
ATOM     27  C17 <0> d   1       7.520  -3.634   1.324  0.00  0.00     0.019 A 
ENDBRANCH   9  23
TORSDOF 5
