REMARK  7 active torsions:
REMARK  status: ('A' for Active; 'I' for Inactive)
REMARK    1  A    between atoms: O1_2  and  C2_3 
REMARK    2  A    between atoms: C5_6  and  C8_9 
REMARK    3  A    between atoms: C15_17  and  C17_20 
REMARK    4  A    between atoms: C17_20  and  N1_21 
REMARK    5  A    between atoms: N2_24  and  C22_27 
REMARK    6  A    between atoms: C22_27  and  C23_28 
REMARK    7  A    between atoms: C23_28  and  O4_29 
ROOT
ATOM      1  C8  <0> d   1       1.568  -2.018  -1.052  0.00  0.00     0.053 C 
ATOM      2  C9  <0> d   1       1.125  -0.735  -1.023  0.00  0.00     0.127 A 
ATOM      3  C10 <0> d   1      -0.270  -0.295  -1.169  0.00  0.00     0.218 A 
ATOM      4  O2  <0> d   1      -1.258  -0.989  -1.338  0.00  0.00    -0.284 OA
ATOM      5  C11 <0> d   1      -0.207   1.174  -1.064  0.00  0.00     0.051 A 
ATOM      6  C12 <0> d   1      -1.176   2.177  -1.114  0.00  0.00     0.021 A 
ATOM      7  C13 <0> d   1      -0.808   3.486  -0.987  0.00  0.00     0.041 A 
ATOM      8  C14 <0> d   1       0.530   3.821  -0.796  0.00  0.00     0.118 A 
ATOM      9  C15 <0> d   1       1.502   2.836  -0.739  0.00  0.00     0.039 A 
ATOM     10  C16 <0> d   1       1.145   1.500  -0.873  0.00  0.00     0.101 A 
ATOM     11  O3  <0> d   1       1.887   0.371  -0.854  0.00  0.00    -0.305 OA
ATOM     12  O5  <0> d   1       0.886   5.125  -0.666  0.00  0.00    -0.191 OA
ENDROOT
BRANCH   9  13
ATOM     13  C17 <0> d   1       2.947   3.213  -0.533  0.00  0.00     0.279 C 
BRANCH  13  14
ATOM     14  N1  <0> d   1       3.588   3.426  -1.838  0.00  0.00    -0.064 N 
ATOM     15  C21 <0> d   1       4.922   4.022  -1.678  0.00  0.00     0.265 C 
ATOM     16  C20 <0> d   1       5.522   4.301  -3.058  0.00  0.00     0.300 C 
ATOM     17  N2  <0> d   1       5.596   3.047  -3.820  0.00  0.00     0.093 N 
ATOM     18  C19 <0> d   1       4.263   2.451  -3.979  0.00  0.00     0.300 C 
ATOM     19  C18 <0> d   1       3.663   2.172  -2.599  0.00  0.00     0.265 C 
ATOM     20  H26 <0> d   1       2.966   4.133  -2.407  0.00  0.00     0.280 HD
BRANCH  17  21
ATOM     21  C22 <0> d   1       6.238   3.260  -5.124  0.00  0.00     0.298 C 
BRANCH  21  22
ATOM     22  C23 <0> d   1       5.298   4.059  -6.029  0.00  0.00     0.194 C 
BRANCH  22  23
ATOM     23  O4  <0> d   1       5.139   5.379  -5.506  0.00  0.00    -0.399 OA
ATOM     24  H25 <0> d   1       4.494   6.103  -6.026  0.00  0.00     0.209 HD
ENDBRANCH  22  23
ENDBRANCH  21  22
ENDBRANCH  17  21
ENDBRANCH  13  14
ENDBRANCH   9  13
BRANCH   1  25
ATOM     25  C5  <0> d   1       3.008  -2.298  -1.002  0.00  0.00    -0.033 A 
ATOM     26  C4  <0> d   1       3.919  -1.259  -0.775  0.00  0.00     0.014 A 
ATOM     27  C3  <0> d   1       5.268  -1.527  -0.728  0.00  0.00     0.037 A 
ATOM     28  C2  <0> d   1       5.727  -2.828  -0.905  0.00  0.00     0.068 A 
ATOM     29  C7  <0> d   1       4.828  -3.863  -1.131  0.00  0.00     0.037 A 
ATOM     30  C6  <0> d   1       3.476  -3.607  -1.174  0.00  0.00     0.014 A 
BRANCH  28  31
ATOM     31  O1  <0> d   1       7.059  -3.087  -0.858  0.00  0.00    -0.356 OA
ATOM     32  C1  <0> d   1       7.463  -4.444  -1.047  0.00  0.00     0.210 C 
ENDBRANCH  28  31
ENDBRANCH   1  25
TORSDOF 7
