REMARK  5 active torsions:
REMARK  status: ('A' for Active; 'I' for Inactive)
REMARK    1  A    between atoms: C4_4  and  O3_27 
REMARK    2  A    between atoms: C6_6  and  C11_13 
REMARK    3  A    between atoms: C11_13  and  N1_14 
REMARK    4  A    between atoms: N2_17  and  C16_20 
REMARK    5  A    between atoms: C16_20  and  C17_21 
ROOT
ATOM      1  C11 <0> d   1       0.065  -5.027  -1.289  0.00  0.00     0.312 C 
ENDROOT
BRANCH   1   2
ATOM      2  C6  <0> d   1       0.061  -4.239  -0.004  0.00  0.00    -0.009 A 
ATOM      3  C5  <0> d   1       0.040  -2.776  -0.019  0.00  0.00     0.039 A 
ATOM      4  C4  <0> d   1       0.024  -2.065  -1.230  0.00  0.00     0.079 A 
ATOM      5  C9  <0> d   1       0.037  -2.080   1.202  0.00  0.00     0.093 A 
ATOM      6  C3  <0> d   1       0.006  -0.682  -1.206  0.00  0.00     0.044 A 
ATOM      7  C2  <0> d   1       0.002  -0.004   0.002  0.00  0.00    -0.057 A 
ATOM      8  C1  <0> d   1      -0.018   1.503   0.010  0.00  0.00     0.048 C 
ATOM      9  C10 <0> d   1       0.023  -0.693   1.198  0.00  0.00     0.045 A 
ATOM     10  O2  <0> d   1       0.052  -2.766   2.366  0.00  0.00    -0.275 OA
ATOM     11  C8  <0> d   1       0.071  -4.108   2.388  0.00  0.00     0.288 A 
ATOM     12  C7  <0> d   1       0.076  -4.868   1.200  0.00  0.00     0.092 A 
ATOM     13  O1  <0> d   1       0.086  -4.684   3.461  0.00  0.00    -0.260 OA
BRANCH   4  14
ATOM     14  O3  <0> d   1       0.027  -2.729  -2.413  0.00  0.00    -0.360 OA
ATOM     15  H24 <0> d   1       0.911  -2.909  -2.761  0.00  0.00     0.217 HD
ENDBRANCH   4  14
ENDBRANCH   1   2
BRANCH   1  16
ATOM     16  N1  <0> d   1      -1.315  -5.199  -1.762  0.00  0.00     0.096 N 
ATOM     17  C15 <0> d   1      -1.341  -5.752  -3.123  0.00  0.00     0.300 C 
ATOM     18  C14 <0> d   1      -2.791  -5.860  -3.600  0.00  0.00     0.265 C 
ATOM     19  N2  <0> d   1      -3.543  -6.730  -2.687  0.00  0.00    -0.064 N 
ATOM     20  C13 <0> d   1      -3.530  -6.152  -1.336  0.00  0.00     0.265 C 
ATOM     21  H25 <0> d   1      -3.117  -7.644  -2.666  0.00  0.00     0.280 HD
ATOM     22  C12 <0> d   1      -2.086  -6.047  -0.840  0.00  0.00     0.300 C 
BRANCH  19  23
ATOM     23  C16 <0> d   1      -4.931  -6.848  -3.155  0.00  0.00     0.273 C 
BRANCH  23  24
ATOM     24  C17 <0> d   1      -4.953  -7.551  -4.487  0.00  0.00    -0.033 A 
ATOM     25  C22 <0> d   1      -5.062  -8.928  -4.540  0.00  0.00     0.009 A 
ATOM     26  C21 <0> d   1      -5.087  -9.573  -5.762  0.00  0.00     0.001 A 
ATOM     27  C20 <0> d   1      -4.994  -8.842  -6.931  0.00  0.00     0.000 A 
ATOM     28  C19 <0> d   1      -4.880  -7.466  -6.879  0.00  0.00     0.001 A 
ATOM     29  C18 <0> d   1      -4.859  -6.820  -5.657  0.00  0.00     0.009 A 
ENDBRANCH  23  24
ENDBRANCH  19  23
ENDBRANCH   1  16
TORSDOF 5
