REMARK  7 active torsions:
REMARK  status: ('A' for Active; 'I' for Inactive)
REMARK    1  A    between atoms: C5_5  and  C18_21 
REMARK    2  A    between atoms: C10_11  and  C11_12 
REMARK    3  A    between atoms: C16_17  and  O2_18 
REMARK    4  A    between atoms: C18_21  and  N1_22 
REMARK    5  A    between atoms: N2_25  and  C23_28 
REMARK    6  A    between atoms: C23_28  and  C24_29 
REMARK    7  A    between atoms: C24_29  and  O4_30 
ROOT
ATOM      1  C1  <0> d   1      -1.400  -8.529   1.655  0.00  0.00     0.049 C 
ATOM      2  C2  <0> d   1      -0.583  -8.321   0.406  0.00  0.00    -0.042 A 
ATOM      3  C3  <0> d   1      -0.054  -9.396  -0.252  0.00  0.00     0.048 A 
ATOM      4  C4  <0> d   1       0.700  -9.207  -1.406  0.00  0.00     0.118 A 
ATOM      5  C5  <0> d   1       0.925  -7.932  -1.900  0.00  0.00     0.039 A 
ATOM      6  C6  <0> d   1       0.396  -6.829  -1.243  0.00  0.00     0.102 A 
ATOM      7  C7  <0> d   1      -0.364  -7.032  -0.079  0.00  0.00     0.057 A 
ATOM      8  C8  <0> d   1      -0.782  -5.696   0.382  0.00  0.00     0.219 A 
ATOM      9  O1  <0> d   1      -1.457  -5.422   1.359  0.00  0.00    -0.284 OA
ATOM     10  C9  <0> d   1      -0.203  -4.768  -0.600  0.00  0.00     0.128 A 
ATOM     11  C10 <0> d   1      -0.320  -3.416  -0.592  0.00  0.00     0.055 C 
ATOM     12  O3  <0> d   1       0.464  -5.508  -1.517  0.00  0.00    -0.305 OA
ATOM     13  O5  <0> d   1       1.221 -10.281  -2.053  0.00  0.00    -0.191 OA
ENDROOT
BRANCH   5  14
ATOM     14  C18 <0> d   1       1.745  -7.742  -3.151  0.00  0.00     0.279 C 
BRANCH  14  15
ATOM     15  N1  <0> d   1       3.161  -7.587  -2.789  0.00  0.00    -0.064 N 
ATOM     16  C22 <0> d   1       4.017  -7.637  -3.982  0.00  0.00     0.265 C 
ATOM     17  C21 <0> d   1       5.485  -7.551  -3.557  0.00  0.00     0.300 C 
ATOM     18  N2  <0> d   1       5.703  -6.306  -2.807  0.00  0.00     0.093 N 
ATOM     19  C20 <0> d   1       4.847  -6.256  -1.614  0.00  0.00     0.300 C 
ATOM     20  C19 <0> d   1       3.379  -6.342  -2.040  0.00  0.00     0.265 C 
ATOM     21  H28 <0> d   1       3.437  -8.429  -2.137  0.00  0.00     0.280 HD
BRANCH  18  22
ATOM     22  C23 <0> d   1       7.119  -6.151  -2.446  0.00  0.00     0.298 C 
BRANCH  22  23
ATOM     23  C24 <0> d   1       7.916  -5.722  -3.680  0.00  0.00     0.194 C 
BRANCH  23  24
ATOM     24  O4  <0> d   1       7.532  -4.399  -4.059  0.00  0.00    -0.399 OA
ATOM     25  H27 <0> d   1       8.001  -3.919  -4.931  0.00  0.00     0.209 HD
ENDBRANCH  23  24
ENDBRANCH  22  23
ENDBRANCH  18  22
ENDBRANCH  14  15
ENDBRANCH   5  14
BRANCH  11  26
ATOM     26  C11 <0> d   1       0.240  -2.624  -1.693  0.00  0.00    -0.000 A 
ATOM     27  C16 <0> d   1      -0.172  -1.296  -1.890  0.00  0.00     0.078 A 
ATOM     28  C15 <0> d   1       0.368  -0.557  -2.931  0.00  0.00     0.037 A 
ATOM     29  C14 <0> d   1       1.305  -1.127  -3.772  0.00  0.00     0.003 A 
ATOM     30  C13 <0> d   1       1.711  -2.438  -3.585  0.00  0.00     0.001 A 
ATOM     31  C12 <0> d   1       1.186  -3.189  -2.557  0.00  0.00     0.014 A 
BRANCH  27  32
ATOM     32  O2  <0> d   1      -1.091  -0.737  -1.063  0.00  0.00    -0.355 OA
ATOM     33  C17 <0> d   1      -1.458   0.620  -1.322  0.00  0.00     0.210 C 
ENDBRANCH  27  32
ENDBRANCH  11  26
TORSDOF 7
