REMARK  2 active torsions:
REMARK  status: ('A' for Active; 'I' for Inactive)
REMARK    1  A    between atoms: C9_10  and  C10_11 
REMARK    2  A    between atoms: N1_20  and  C19_23 
ROOT
ATOM      1  C1  <0> d   1       2.984  -5.586  -2.743  0.00  0.00     0.054 C 
ATOM      2  C2  <0> d   1       2.225  -5.431  -1.450  0.00  0.00     0.007 A 
ATOM      3  C3  <0> d   1       1.916  -4.162  -0.978  0.00  0.00     0.087 A 
ATOM      4  C4  <0> d   1       1.214  -4.006   0.213  0.00  0.00     0.005 A 
ATOM      5  C5  <0> d   1       0.826  -5.106   0.929  0.00  0.00     0.030 A 
ATOM      6  C6  <0> d   1       1.131  -6.385   0.467  0.00  0.00     0.052 A 
ATOM      7  C7  <0> d   1       1.837  -6.556  -0.735  0.00  0.00     0.099 A 
ATOM      8  O1  <0> d   1       2.014  -7.873  -0.977  0.00  0.00    -0.305 OA
ATOM      9  C8  <0> d   1       1.469  -8.641  -0.005  0.00  0.00     0.127 A 
ATOM     10  C9  <0> d   1       1.478  -9.996   0.045  0.00  0.00     0.053 C 
ATOM     11  C16 <0> d   1       0.865  -7.738   0.988  0.00  0.00     0.218 A 
ATOM     12  O2  <0> d   1       0.277  -8.040   2.011  0.00  0.00    -0.284 OA
ATOM     13  C17 <0> d   1       0.868  -2.633   0.730  0.00  0.00     0.317 C 
ATOM     14  N1  <0> d   1       1.710  -1.630   0.063  0.00  0.00     0.121 N 
ATOM     15  C18 <0> d   1       1.680  -1.831  -1.395  0.00  0.00     0.448 C 
ATOM     16  O3  <0> d   1       2.310  -3.078  -1.697  0.00  0.00    -0.320 OA
ENDROOT
BRANCH  10  17
ATOM     17  C10 <0> d   1       2.253 -10.763  -0.941  0.00  0.00    -0.034 A 
ATOM     18  C15 <0> d   1       3.090 -10.101  -1.846  0.00  0.00     0.011 A 
ATOM     19  C14 <0> d   1       3.814 -10.828  -2.767  0.00  0.00     0.001 A 
ATOM     20  C13 <0> d   1       3.714 -12.208  -2.798  0.00  0.00     0.000 A 
ATOM     21  C12 <0> d   1       2.888 -12.870  -1.906  0.00  0.00     0.001 A 
ATOM     22  C11 <0> d   1       2.162 -12.159  -0.975  0.00  0.00     0.011 A 
ENDBRANCH  10  17
BRANCH  14  23
ATOM     23  C19 <0> d   1       1.286  -0.268   0.415  0.00  0.00     0.240 C 
ATOM     24  C22 <0> d   1       2.350   0.756  -0.071  0.00  0.00     0.176 C 
ATOM     25  S1  <0> d   1       1.927   2.208   0.982  0.00  0.00     0.146 S 
ATOM     26  C21 <0> d   1       1.033   1.349   2.340  0.00  0.00     0.142 C 
ATOM     27  O4  <0> d   1       3.126   2.768   1.499  0.00  0.00    -0.228 OA
ATOM     28  O5  <0> d   1       1.013   3.038   0.279  0.00  0.00    -0.228 OA
ATOM     29  C20 <0> d   1       1.163  -0.141   1.943  0.00  0.00     0.052 C 
ENDBRANCH  14  23
TORSDOF 2
