REMARK  7 active torsions:
REMARK  status: ('A' for Active; 'I' for Inactive)
REMARK    1  A    between atoms: C2_2  and  N1_3 
REMARK    2  A    between atoms: N2_6  and  C7_9 
REMARK    3  A    between atoms: C7_9  and  C8_10 
REMARK    4  A    between atoms: C9_11  and  O5_31 
REMARK    5  A    between atoms: C15_18  and  C16_19 
REMARK    6  A    between atoms: C19_22  and  O3_27 
REMARK    7  A    between atoms: C21_24  and  O2_25 
ROOT
ATOM      1  C8  <0> d   1       2.497   3.562   1.585  0.00  0.00     0.038 A 
ATOM      2  C9  <0> d   1       2.269   4.459   0.554  0.00  0.00     0.076 A 
ATOM      3  C10 <0> d   1       2.283   5.830   0.793  0.00  0.00     0.038 A 
ATOM      4  C11 <0> d   1       2.532   6.306   2.049  0.00  0.00     0.021 A 
ATOM      5  C12 <0> d   1       2.769   5.414   3.096  0.00  0.00     0.051 A 
ATOM      6  C13 <0> d   1       2.753   4.029   2.868  0.00  0.00     0.101 A 
ATOM      7  O1  <0> d   1       3.007   3.375   4.022  0.00  0.00    -0.305 OA
ATOM      8  C14 <0> d   1       3.201   4.232   5.053  0.00  0.00     0.128 A 
ATOM      9  C15 <0> d   1       3.475   3.890   6.340  0.00  0.00     0.055 C 
ATOM     10  C24 <0> d   1       3.062   5.596   4.529  0.00  0.00     0.218 A 
ATOM     11  O4  <0> d   1       3.164   6.645   5.143  0.00  0.00    -0.284 OA
ENDROOT
BRANCH   9  12
ATOM     12  C16 <0> d   1       3.433   2.484   6.750  0.00  0.00     0.000 A 
ATOM     13  C21 <0> d   1       3.363   2.147   8.114  0.00  0.00     0.081 A 
ATOM     14  C20 <0> d   1       3.317   0.816   8.488  0.00  0.00     0.074 A 
ATOM     15  C19 <0> d   1       3.353  -0.177   7.519  0.00  0.00     0.070 A 
ATOM     16  C18 <0> d   1       3.427   0.159   6.170  0.00  0.00     0.038 A 
ATOM     17  C17 <0> d   1       3.467   1.468   5.785  0.00  0.00     0.017 A 
BRANCH  13  18
ATOM     18  O2  <0> d   1       3.334   3.122   9.057  0.00  0.00    -0.355 OA
ATOM     19  C22 <0> d   1       3.263   2.703  10.422  0.00  0.00     0.210 C 
ENDBRANCH  13  18
BRANCH  15  20
ATOM     20  O3  <0> d   1       3.314  -1.483   7.888  0.00  0.00    -0.356 OA
ATOM     21  C23 <0> d   1       3.354  -2.454   6.841  0.00  0.00     0.210 C 
ENDBRANCH  15  20
ENDBRANCH   9  12
BRANCH   1  22
ATOM     22  C7  <0> d   1       2.474   2.080   1.312  0.00  0.00     0.317 C 
BRANCH  22  23
ATOM     23  N2  <0> d   1       1.111   1.568   1.505  0.00  0.00     0.096 N 
ATOM     24  C4  <0> d   1       0.194   2.119   0.497  0.00  0.00     0.303 C 
ATOM     25  C3  <0> d   1      -1.227   1.625   0.780  0.00  0.00     0.302 C 
ATOM     26  N1  <0> d   1      -1.246   0.156   0.757  0.00  0.00     0.091 N 
ATOM     27  C6  <0> d   1      -0.329  -0.395   1.764  0.00  0.00     0.302 C 
ATOM     28  C5  <0> d   1       1.092   0.098   1.482  0.00  0.00     0.303 C 
BRANCH  26  29
ATOM     29  C2  <0> d   1      -2.609  -0.356   0.949  0.00  0.00     0.268 C 
ATOM     30  C1  <0> d   1      -2.632  -1.861   0.673  0.00  0.00     0.037 C 
ENDBRANCH  26  29
ENDBRANCH  22  23
ENDBRANCH   1  22
BRANCH   2  31
ATOM     31  O5  <0> d   1       2.026   3.997  -0.699  0.00  0.00    -0.360 OA
ATOM     32  H28 <0> d   1       1.844   4.705  -1.521  0.00  0.00     0.217 HD
ENDBRANCH   2  31
TORSDOF 7
