REMARK  7 active torsions:
REMARK  status: ('A' for Active; 'I' for Inactive)
REMARK    1  A    between atoms: C2_2  and  N1_3 
REMARK    2  A    between atoms: N2_6  and  C7_9 
REMARK    3  A    between atoms: C7_9  and  C8_10 
REMARK    4  A    between atoms: C15_18  and  C16_19 
REMARK    5  A    between atoms: C18_21  and  O4_29 
REMARK    6  A    between atoms: C19_22  and  O3_27 
REMARK    7  A    between atoms: C20_23  and  O2_25 
ROOT
ATOM      1  C8  <0> d   1      -1.167  10.378   1.295  0.00  0.00     0.041 A 
ATOM      2  C9  <0> d   1      -1.077  11.693   0.866  0.00  0.00     0.118 A 
ATOM      3  C10 <0> d   1      -0.471  12.001  -0.349  0.00  0.00     0.041 A 
ATOM      4  C11 <0> d   1       0.042  11.005  -1.132  0.00  0.00     0.021 A 
ATOM      5  C12 <0> d   1      -0.041   9.678  -0.712  0.00  0.00     0.051 A 
ATOM      6  C13 <0> d   1      -0.650   9.354   0.512  0.00  0.00     0.101 A 
ATOM      7  O1  <0> d   1      -0.616   8.017   0.698  0.00  0.00    -0.305 OA
ATOM      8  C14 <0> d   1      -0.006   7.381  -0.330  0.00  0.00     0.127 A 
ATOM      9  C15 <0> d   1       0.190   6.042  -0.442  0.00  0.00     0.053 C 
ATOM     10  C25 <0> d   1       0.401   8.402  -1.306  0.00  0.00     0.218 A 
ATOM     11  O5  <0> d   1       0.975   8.233  -2.368  0.00  0.00    -0.284 OA
ATOM     12  O6  <0> d   1      -1.584  12.688   1.636  0.00  0.00    -0.191 OA
ENDROOT
BRANCH   9  13
ATOM     13  C16 <0> d   1      -0.127   5.157   0.686  0.00  0.00    -0.028 A 
ATOM     14  C21 <0> d   1      -0.495   5.701   1.923  0.00  0.00     0.051 A 
ATOM     15  C20 <0> d   1      -0.793   4.865   2.981  0.00  0.00     0.105 A 
ATOM     16  C19 <0> d   1      -0.722   3.483   2.821  0.00  0.00     0.135 A 
ATOM     17  C18 <0> d   1      -0.361   2.938   1.591  0.00  0.00     0.105 A 
ATOM     18  C17 <0> d   1      -0.062   3.767   0.527  0.00  0.00     0.051 A 
BRANCH  15  19
ATOM     19  O2  <0> d   1      -1.150   5.391   4.183  0.00  0.00    -0.353 OA
ATOM     20  C22 <0> d   1      -1.197   6.816   4.279  0.00  0.00     0.210 C 
ENDBRANCH  15  19
BRANCH  16  21
ATOM     21  O3  <0> d   1      -1.010   2.663   3.867  0.00  0.00    -0.351 OA
ATOM     22  C23 <0> d   1      -2.371   2.251   4.012  0.00  0.00     0.210 C 
ENDBRANCH  16  21
BRANCH  17  23
ATOM     23  O4  <0> d   1      -0.298   1.588   1.438  0.00  0.00    -0.353 OA
ATOM     24  C24 <0> d   1       0.084   1.098   0.151  0.00  0.00     0.210 C 
ENDBRANCH  17  23
ENDBRANCH   9  13
BRANCH   1  25
ATOM     25  C7  <0> d   1      -1.825  10.060   2.613  0.00  0.00     0.317 C 
BRANCH  25  26
ATOM     26  N2  <0> d   1      -3.260   9.830   2.401  0.00  0.00     0.096 N 
ATOM     27  C4  <0> d   1      -3.891   9.288   3.612  0.00  0.00     0.300 C 
ATOM     28  C3  <0> d   1      -5.365   8.989   3.326  0.00  0.00     0.265 C 
ATOM     29  N1  <0> d   1      -6.037  10.222   2.892  0.00  0.00    -0.068 N 
ATOM     30  C6  <0> d   1      -5.406  10.764   1.681  0.00  0.00     0.265 C 
ATOM     31  H30 <0> d   1      -5.930  10.967   3.694  0.00  0.00     0.280 HD
ATOM     32  C5  <0> d   1      -3.932  11.063   1.967  0.00  0.00     0.300 C 
BRANCH  29  33
ATOM     33  C2  <0> d   1      -7.472   9.992   2.680  0.00  0.00     0.230 C 
ATOM     34  C1  <0> d   1      -8.089  11.215   1.997  0.00  0.00     0.034 C 
ENDBRANCH  29  33
ENDBRANCH  25  26
ENDBRANCH   1  25
TORSDOF 7
