REMARK  7 active torsions:
REMARK  status: ('A' for Active; 'I' for Inactive)
REMARK    1  A    between atoms: C4_4  and  O5_37 
REMARK    2  A    between atoms: C5_5  and  C19_23 
REMARK    3  A    between atoms: C10_11  and  C11_12 
REMARK    4  A    between atoms: C15_16  and  O3_20 
REMARK    5  A    between atoms: C16_17  and  O2_18 
REMARK    6  A    between atoms: C19_23  and  N1_24 
REMARK    7  A    between atoms: N2_27  and  C24_30 
ROOT
ATOM      1  C1  <0> d   1       0.117   2.538   0.920  0.00  0.00     0.049 C 
ATOM      2  C2  <0> d   1       0.652   1.180   0.543  0.00  0.00    -0.042 A 
ATOM      3  C3  <0> d   1       1.199   0.979  -0.693  0.00  0.00     0.045 A 
ATOM      4  C4  <0> d   1       1.693  -0.274  -1.044  0.00  0.00     0.077 A 
ATOM      5  C5  <0> d   1       1.637  -1.330  -0.148  0.00  0.00     0.038 A 
ATOM      6  C6  <0> d   1       1.084  -1.143   1.112  0.00  0.00     0.102 A 
ATOM      7  C7  <0> d   1       0.594   0.128   1.457  0.00  0.00     0.057 A 
ATOM      8  C8  <0> d   1       0.086   0.017   2.836  0.00  0.00     0.219 A 
ATOM      9  O1  <0> d   1      -0.427   0.890   3.514  0.00  0.00    -0.284 OA
ATOM     10  C9  <0> d   1       0.338  -1.382   3.211  0.00  0.00     0.128 A 
ATOM     11  C10 <0> d   1       0.037  -1.960   4.402  0.00  0.00     0.055 C 
ATOM     12  O4  <0> d   1       0.914  -1.992   2.148  0.00  0.00    -0.305 OA
ENDROOT
BRANCH   5  13
ATOM     13  C19 <0> d   1       2.176  -2.681  -0.542  0.00  0.00     0.317 C 
BRANCH  13  14
ATOM     14  N1  <0> d   1       3.596  -2.768  -0.176  0.00  0.00     0.096 N 
ATOM     15  C23 <0> d   1       4.095  -4.142  -0.325  0.00  0.00     0.292 C 
ATOM     16  C22 <0> d   1       5.519  -4.227   0.234  0.00  0.00     0.153 C 
ATOM     17  N2  <0> d   1       6.339  -3.194  -0.416  0.00  0.00    -0.378 N 
ATOM     18  C21 <0> d   1       5.836  -1.812  -0.428  0.00  0.00     0.153 C 
ATOM     19  C20 <0> d   1       4.400  -1.821  -0.961  0.00  0.00     0.292 C 
BRANCH  17  20
ATOM     20  C24 <0> d   1       7.564  -3.518  -1.007  0.00  0.00     0.030 A 
ATOM     21  C29 <0> d   1       8.086  -4.797  -0.871  0.00  0.00     0.032 A 
ATOM     22  C28 <0> d   1       9.294  -5.116  -1.460  0.00  0.00     0.044 A 
ATOM     23  C27 <0> d   1       9.990  -4.157  -2.177  0.00  0.00     0.116 A 
ATOM     24  C26 <0> d   1       9.474  -2.879  -2.309  0.00  0.00     0.044 A 
ATOM     25  F1  <0> d   1      11.174  -4.470  -2.748  0.00  0.00    -0.206 F 
ATOM     26  C25 <0> d   1       8.264  -2.558  -1.727  0.00  0.00     0.032 A 
ENDBRANCH  17  20
ENDBRANCH  13  14
ENDBRANCH   5  13
BRANCH   4  27
ATOM     27  O5  <0> d   1       2.234  -0.464  -2.275  0.00  0.00    -0.360 OA
ATOM     28  H29 <0> d   1       3.185  -0.294  -2.317  0.00  0.00     0.217 HD
ENDBRANCH   4  27
BRANCH  11  29
ATOM     29  C11 <0> d   1       0.269  -3.395   4.600  0.00  0.00     0.003 A 
ATOM     30  C16 <0> d   1       0.194  -3.951   5.887  0.00  0.00     0.111 A 
ATOM     31  C15 <0> d   1       0.409  -5.314   6.060  0.00  0.00     0.102 A 
ATOM     32  C14 <0> d   1       0.707  -6.113   4.968  0.00  0.00     0.040 A 
ATOM     33  C13 <0> d   1       0.787  -5.564   3.698  0.00  0.00     0.004 A 
ATOM     34  C12 <0> d   1       0.571  -4.218   3.507  0.00  0.00     0.014 A 
BRANCH  30  35
ATOM     35  O2  <0> d   1      -0.092  -3.164   6.955  0.00  0.00    -0.352 OA
ATOM     36  C17 <0> d   1      -1.471  -3.011   7.297  0.00  0.00     0.210 C 
ENDBRANCH  30  35
BRANCH  31  37
ATOM     37  O3  <0> d   1       0.333  -5.862   7.303  0.00  0.00    -0.353 OA
ATOM     38  C18 <0> d   1       0.572  -7.267   7.408  0.00  0.00     0.210 C 
ENDBRANCH  31  37
ENDBRANCH  11  29
TORSDOF 7
