REMARK  13 active torsions:
REMARK  status: ('A' for Active; 'I' for Inactive)
REMARK    1  A    between atoms: C4_4  and  C7_7 
REMARK    2  A    between atoms: C11_12  and  O6_39 
REMARK    3  A    between atoms: C12_13  and  C23_29 
REMARK    4  A    between atoms: C13_14  and  O4_28 
REMARK    5  A    between atoms: C14_15  and  C16_18 
REMARK    6  A    between atoms: C16_18  and  N1_19 
REMARK    7  A    between atoms: N2_22  and  C21_25 
REMARK    8  A    between atoms: C21_25  and  C22_26 
REMARK    9  A    between atoms: C22_26  and  O3_27 
REMARK   10  A    between atoms: C23_29  and  N3_30 
REMARK   11  A    between atoms: N4_33  and  C28_36 
REMARK   12  A    between atoms: C28_36  and  C29_37 
REMARK   13  A    between atoms: C29_37  and  O5_38 
ROOT
ATOM      1  C7  <0> d   1       3.695  -0.683  -0.037  0.00  0.00     0.090 A 
ATOM      2  C8  <0> d   1       3.687  -2.042  -0.050  0.00  0.00     0.094 A 
ATOM      3  C9  <0> d   1       4.915  -2.748  -0.067  0.00  0.00     0.190 A 
ATOM      4  O1  <0> d   1       4.945  -3.967  -0.079  0.00  0.00    -0.287 OA
ATOM      5  C10 <0> d   1       6.153  -1.951  -0.069  0.00  0.00     0.082 A 
ATOM      6  C11 <0> d   1       7.412  -2.564  -0.086  0.00  0.00     0.093 A 
ATOM      7  C12 <0> d   1       8.551  -1.780  -0.088  0.00  0.00     0.036 A 
ATOM      8  C13 <0> d   1       8.445  -0.394  -0.074  0.00  0.00     0.087 A 
ATOM      9  C14 <0> d   1       7.202   0.220  -0.057  0.00  0.00     0.039 A 
ATOM     10  C15 <0> d   1       6.049  -0.549  -0.055  0.00  0.00     0.103 A 
ATOM     11  O2  <0> d   1       4.830   0.032  -0.045  0.00  0.00    -0.308 OA
ENDROOT
BRANCH   7  12
ATOM     12  C23 <0> d   1       9.911  -2.430  -0.105  0.00  0.00     0.279 C 
BRANCH  12  13
ATOM     13  N3  <0> d   1      10.341  -2.628  -1.496  0.00  0.00    -0.064 N 
ATOM     14  C27 <0> d   1      11.714  -3.150  -1.513  0.00  0.00     0.265 C 
ATOM     15  C26 <0> d   1      12.170  -3.339  -2.962  0.00  0.00     0.300 C 
ATOM     16  N4  <0> d   1      11.262  -4.276  -3.639  0.00  0.00     0.093 N 
ATOM     17  C25 <0> d   1       9.880  -3.778  -3.608  0.00  0.00     0.300 C 
ATOM     18  C24 <0> d   1       9.443  -3.586  -2.154  0.00  0.00     0.265 C 
ATOM     19  H39 <0> d   1      10.310  -1.747  -1.986  0.00  0.00     0.280 HD
BRANCH  16  20
ATOM     20  C28 <0> d   1      11.700  -4.528  -5.019  0.00  0.00     0.298 C 
BRANCH  20  21
ATOM     21  C29 <0> d   1      13.036  -5.272  -5.002  0.00  0.00     0.194 C 
BRANCH  21  22
ATOM     22  O5  <0> d   1      12.854  -6.565  -4.421  0.00  0.00    -0.399 OA
ATOM     23  H37 <0> d   1      13.662  -7.094  -4.378  0.00  0.00     0.209 HD
ENDBRANCH  21  22
ENDBRANCH  20  21
ENDBRANCH  16  20
ENDBRANCH  12  13
ENDBRANCH   7  12
BRANCH   6  24
ATOM     24  O6  <0> d   1       7.514  -3.917  -0.099  0.00  0.00    -0.359 OA
ATOM     25  H38 <0> d   1       7.536  -4.301  -0.986  0.00  0.00     0.217 HD
ENDBRANCH   6  24
BRANCH   8  26
ATOM     26  O4  <0> d   1       9.569   0.367  -0.076  0.00  0.00    -0.359 OA
ATOM     27  H22 <0> d   1       9.888   0.596  -0.960  0.00  0.00     0.217 HD
ENDBRANCH   8  26
BRANCH   9  28
ATOM     28  C16 <0> d   1       7.104   1.724  -0.042  0.00  0.00     0.317 C 
BRANCH  28  29
ATOM     29  N1  <0> d   1       7.061   2.226  -1.421  0.00  0.00     0.096 N 
ATOM     30  C20 <0> d   1       6.729   3.657  -1.450  0.00  0.00     0.300 C 
ATOM     31  C19 <0> d   1       6.635   4.126  -2.904  0.00  0.00     0.265 C 
ATOM     32  N2  <0> d   1       7.918   3.890  -3.579  0.00  0.00    -0.066 N 
ATOM     33  C18 <0> d   1       8.223   2.453  -3.563  0.00  0.00     0.265 C 
ATOM     34  H40 <0> d   1       8.648   4.394  -3.099  0.00  0.00     0.280 HD
ATOM     35  C17 <0> d   1       8.331   1.970  -2.115  0.00  0.00     0.300 C 
BRANCH  32  36
ATOM     36  C21 <0> d   1       7.832   4.357  -4.969  0.00  0.00     0.260 C 
BRANCH  36  37
ATOM     37  C22 <0> d   1       7.638   5.875  -4.986  0.00  0.00     0.192 C 
BRANCH  37  38
ATOM     38  O3  <0> d   1       8.797   6.510  -4.444  0.00  0.00    -0.399 OA
ATOM     39  H21 <0> d   1       8.744   7.475  -4.424  0.00  0.00     0.209 HD
ENDBRANCH  37  38
ENDBRANCH  36  37
ENDBRANCH  32  36
ENDBRANCH  28  29
ENDBRANCH   9  28
BRANCH   1  40
ATOM     40  C4  <0> d   1       2.404   0.034  -0.021  0.00  0.00    -0.002 A 
ATOM     41  C3  <0> d   1       2.377   1.430  -0.013  0.00  0.00     0.014 A 
ATOM     42  C2  <0> d   1       1.168   2.094   0.002  0.00  0.00     0.001 A 
ATOM     43  C1  <0> d   1      -0.017   1.379   0.010  0.00  0.00     0.000 A 
ATOM     44  C6  <0> d   1       0.002  -0.004   0.002  0.00  0.00     0.001 A 
ATOM     45  C5  <0> d   1       1.204  -0.681  -0.013  0.00  0.00     0.014 A 
ENDBRANCH   1  40
TORSDOF 13
