REMARK  4 active torsions:
REMARK  status: ('A' for Active; 'I' for Inactive)
REMARK    1  A    between atoms: C4_4  and  O3_27 
REMARK    2  A    between atoms: C5_5  and  C16_19 
REMARK    3  A    between atoms: C10_11  and  C11_12 
REMARK    4  A    between atoms: C16_19  and  N2_20 
ROOT
ATOM      1  C1  <0> d   1       2.484   1.039  -0.071  0.00  0.00     0.049 C 
ATOM      2  C2  <0> d   1       1.169   1.773  -0.063  0.00  0.00    -0.042 A 
ATOM      3  C3  <0> d   1      -0.006   1.074  -0.077  0.00  0.00     0.045 A 
ATOM      4  C4  <0> d   1      -1.222   1.751  -0.075  0.00  0.00     0.077 A 
ATOM      5  C5  <0> d   1      -1.258   3.136  -0.047  0.00  0.00     0.038 A 
ATOM      6  C6  <0> d   1      -0.074   3.861  -0.032  0.00  0.00     0.102 A 
ATOM      7  C7  <0> d   1       1.147   3.168  -0.041  0.00  0.00     0.057 A 
ATOM      8  C8  <0> d   1       2.207   4.192  -0.022  0.00  0.00     0.219 A 
ATOM      9  O1  <0> d   1       3.413   4.018  -0.022  0.00  0.00    -0.284 OA
ATOM     10  C9  <0> d   1       1.482   5.473  -0.003  0.00  0.00     0.128 A 
ATOM     11  C10 <0> d   1       2.038   6.709   0.018  0.00  0.00     0.054 C 
ATOM     12  O2  <0> d   1       0.157   5.192  -0.011  0.00  0.00    -0.305 OA
ENDROOT
BRANCH   5  13
ATOM     13  C16 <0> d   1      -2.583   3.855  -0.039  0.00  0.00     0.317 C 
BRANCH  13  14
ATOM     14  N2  <0> d   1      -3.010   4.110  -1.421  0.00  0.00     0.096 N 
ATOM     15  C20 <0> d   1      -4.397   4.593  -1.463  0.00  0.00     0.300 C 
ATOM     16  C19 <0> d   1      -4.829   4.771  -2.921  0.00  0.00     0.264 C 
ATOM     17  N3  <0> d   1      -3.924   5.719  -3.584  0.00  0.00    -0.072 N 
ATOM     18  C18 <0> d   1      -2.536   5.237  -3.542  0.00  0.00     0.264 C 
ATOM     19  C21 <0> d   1      -4.350   5.975  -4.967  0.00  0.00     0.269 C 
ATOM     20  H24 <0> d   1      -3.969   6.672  -3.037  0.00  0.00     0.279 HD
ATOM     21  C17 <0> d   1      -2.105   5.059  -2.085  0.00  0.00     0.300 C 
ENDBRANCH  13  14
ENDBRANCH   5  13
BRANCH   4  22
ATOM     22  O3  <0> d   1      -2.383   1.048  -0.094  0.00  0.00    -0.360 OA
ATOM     23  H23 <0> d   1      -3.347   1.577  -0.093  0.00  0.00     0.217 HD
ENDBRANCH   4  22
BRANCH  11  24
ATOM     24  C11 <0> d   1       1.185   7.902  -0.078  0.00  0.00    -0.016 A 
ATOM     25  C15 <0> d   1       1.751   9.177  -0.182  0.00  0.00     0.127 A 
ATOM     26  N1  <0> d   1       0.985  10.244  -0.267  0.00  0.00    -0.272 NA
ATOM     27  C14 <0> d   1      -0.332  10.159  -0.259  0.00  0.00     0.116 A 
ATOM     28  C13 <0> d   1      -0.971   8.935  -0.160  0.00  0.00     0.020 A 
ATOM     29  C12 <0> d   1      -0.214   7.781  -0.072  0.00  0.00     0.014 A 
ENDBRANCH  11  24
TORSDOF 4
