REMARK  6 active torsions:
REMARK  status: ('A' for Active; 'I' for Inactive)
REMARK    1  A    between atoms: C2_2  and  N1_3 
REMARK    2  A    between atoms: C4_5  and  C12_14 
REMARK    3  A    between atoms: C9_10  and  O1_12 
REMARK    4  A    between atoms: C18_21  and  O4_29 
REMARK    5  A    between atoms: C19_22  and  C21_25 
REMARK    6  A    between atoms: C21_25  and  N2_26 
ROOT
ATOM      1  C12 <0> d   1       2.796   5.527  -3.177  0.00  0.00     0.055 C 
ATOM      2  C13 <0> d   1       1.636   5.369  -2.480  0.00  0.00     0.128 A 
ATOM      3  C14 <0> d   1       0.832   6.417  -1.958  0.00  0.00     0.218 A 
ATOM      4  O2  <0> d   1       1.035   7.617  -2.040  0.00  0.00    -0.284 OA
ATOM      5  C15 <0> d   1      -0.298   5.743  -1.295  0.00  0.00     0.051 A 
ATOM      6  C16 <0> d   1      -1.417   6.202  -0.601  0.00  0.00     0.021 A 
ATOM      7  C17 <0> d   1      -2.314   5.308  -0.088  0.00  0.00     0.038 A 
ATOM      8  C18 <0> d   1      -2.117   3.941  -0.261  0.00  0.00     0.076 A 
ATOM      9  C19 <0> d   1      -1.007   3.470  -0.943  0.00  0.00     0.035 A 
ATOM     10  C20 <0> d   1      -0.086   4.365  -1.470  0.00  0.00     0.101 A 
ATOM     11  O3  <0> d   1       1.056   4.186  -2.168  0.00  0.00    -0.305 OA
ENDROOT
BRANCH   1  12
ATOM     12  C4  <0> d   1       3.525   4.355  -3.658  0.00  0.00    -0.005 A 
ATOM     13  C3  <0> d   1       3.170   3.034  -3.489  0.00  0.00     0.103 A 
ATOM     14  N1  <0> d   1       4.096   2.238  -4.077  0.00  0.00    -0.356 N 
ATOM     15  C6  <0> d   1       5.093   3.000  -4.655  0.00  0.00     0.045 A 
ATOM     16  C5  <0> d   1       4.784   4.351  -4.428  0.00  0.00     0.005 A 
ATOM     17  C7  <0> d   1       6.245   2.673  -5.364  0.00  0.00     0.033 A 
ATOM     18  C10 <0> d   1       5.629   5.351  -4.899  0.00  0.00     0.051 A 
ATOM     19  C9  <0> d   1       6.770   5.008  -5.601  0.00  0.00     0.069 A 
ATOM     20  C8  <0> d   1       7.074   3.670  -5.831  0.00  0.00     0.039 A 
BRANCH  14  21
ATOM     21  C2  <0> d   1       4.046   0.774  -4.099  0.00  0.00     0.124 C 
ATOM     22  C1  <0> d   1       4.881   0.219  -2.943  0.00  0.00     0.027 C 
ENDBRANCH  14  21
BRANCH  19  23
ATOM     23  O1  <0> d   1       7.597   5.981  -6.068  0.00  0.00    -0.356 OA
ATOM     24  C11 <0> d   1       8.758   5.556  -6.786  0.00  0.00     0.210 C 
ENDBRANCH  19  23
ENDBRANCH   1  12
BRANCH   9  25
ATOM     25  C21 <0> d   1      -0.802   1.987  -1.117  0.00  0.00     0.278 C 
BRANCH  25  26
ATOM     26  N2  <0> d   1      -0.018   1.465   0.010  0.00  0.00    -0.075 N 
ATOM     27  C22 <0> d   1       0.002  -0.004   0.002  0.00  0.00     0.269 C 
ATOM     28  C23 <0> d   1       1.346   2.010  -0.000  0.00  0.00     0.269 C 
ATOM     29  H24 <0> d   1      -0.505   1.791   0.941  0.00  0.00     0.279 HD
ENDBRANCH  25  26
ENDBRANCH   9  25
BRANCH   8  30
ATOM     30  O4  <0> d   1      -3.018   3.061   0.248  0.00  0.00    -0.360 OA
ATOM     31  H25 <0> d   1      -2.866   1.980   0.114  0.00  0.00     0.217 HD
ENDBRANCH   8  30
TORSDOF 6
