REMARK  5 active torsions:
REMARK  status: ('A' for Active; 'I' for Inactive)
REMARK    1  A    between atoms: C4_4  and  C7_7 
REMARK    2  A    between atoms: C13_15  and  O2_19 
REMARK    3  A    between atoms: O2_19  and  C16_20 
REMARK    4  A    between atoms: C16_20  and  C17_21 
REMARK    5  A    between atoms: C17_21  and  N3_22 
ROOT
ATOM      1  C7  <0> d   1       4.720  -0.754  -0.689  0.00  0.00     0.020 A 
ATOM      2  C8  <0> d   1       5.647  -0.929   0.316  0.00  0.00     0.121 A 
ATOM      3  N1  <0> d   1       6.086  -2.213   0.276  0.00  0.00    -0.310 N 
ATOM      4  N2  <0> d   1       5.433  -2.877  -0.769  0.00  0.00    -0.299 N 
ATOM      5  C9  <0> d   1       4.584  -1.986  -1.367  0.00  0.00     0.074 A 
ATOM      6  C10 <0> d   1       3.729  -2.250  -2.465  0.00  0.00     0.043 A 
ATOM      7  C11 <0> d   1       4.029  -3.287  -3.363  0.00  0.00     0.020 A 
ATOM      8  C12 <0> d   1       3.205  -3.538  -4.417  0.00  0.00     0.038 A 
ATOM      9  C13 <0> d   1       2.054  -2.773  -4.622  0.00  0.00     0.072 A 
ATOM     10  C14 <0> d   1       1.731  -1.746  -3.756  0.00  0.00     0.092 A 
ATOM     11  C15 <0> d   1       2.558  -1.472  -2.662  0.00  0.00     0.187 A 
ATOM     12  O1  <0> d   1       2.279  -0.566  -1.886  0.00  0.00    -0.287 OA
ATOM     13  H7  <0> d   1       6.743  -2.605   0.873  0.00  0.00     0.186 HD
ATOM     14  H8  <0> d   1       5.558  -3.805  -1.023  0.00  0.00     0.187 HD
ENDROOT
BRANCH   1  15
ATOM     15  C4  <0> d   1       3.991   0.500  -0.999  0.00  0.00    -0.022 A 
ATOM     16  C3  <0> d   1       4.215   1.159  -2.207  0.00  0.00     0.012 A 
ATOM     17  C2  <0> d   1       3.534   2.325  -2.489  0.00  0.00     0.001 A 
ATOM     18  C1  <0> d   1       2.630   2.840  -1.577  0.00  0.00     0.000 A 
ATOM     19  C6  <0> d   1       2.405   2.191  -0.377  0.00  0.00     0.001 A 
ATOM     20  C5  <0> d   1       3.080   1.024  -0.083  0.00  0.00     0.012 A 
ENDBRANCH   1  15
BRANCH   9  21
ATOM     21  O2  <0> d   1       1.247  -3.040  -5.679  0.00  0.00    -0.349 OA
BRANCH  21  22
ATOM     22  C16 <0> d   1       0.086  -2.222  -5.833  0.00  0.00     0.203 C 
BRANCH  22  23
ATOM     23  C17 <0> d   1      -0.694  -2.670  -7.071  0.00  0.00     0.261 C 
BRANCH  23  24
ATOM     24  N3  <0> d   1      -1.171  -4.046  -6.878  0.00  0.00    -0.065 N 
ATOM     25  C21 <0> d   1      -2.161  -4.073  -5.792  0.00  0.00     0.261 C 
ATOM     26  C20 <0> d   1      -2.657  -5.507  -5.592  0.00  0.00     0.195 C 
ATOM     27  O3  <0> d   1      -3.209  -5.990  -6.820  0.00  0.00    -0.388 OA
ATOM     28  C19 <0> d   1      -2.289  -5.961  -7.915  0.00  0.00     0.195 C 
ATOM     29  C18 <0> d   1      -1.793  -4.528  -8.118  0.00  0.00     0.261 C 
ATOM     30  H24 <0> d   1      -0.393  -4.641  -6.638  0.00  0.00     0.280 HD
ENDBRANCH  23  24
ENDBRANCH  22  23
ENDBRANCH  21  22
ENDBRANCH   9  21
TORSDOF 5
