REMARK  4 active torsions:
REMARK  status: ('A' for Active; 'I' for Inactive)
REMARK    1  A    between atoms: N2_5  and  C6_8 
REMARK    2  A    between atoms: C6_8  and  C7_9 
REMARK    3  A    between atoms: C13_17  and  O3_26 
REMARK    4  A    between atoms: C14_18  and  C16_20 
ROOT
ATOM      1  C7  <0> d   1      -2.259   3.895  -0.007  0.00  0.00    -0.014 A 
ATOM      2  C8  <0> d   1      -3.248   2.968  -0.080  0.00  0.00     0.092 A 
ATOM      3  C9  <0> d   1      -2.922   1.596  -0.137  0.00  0.00     0.288 A 
ATOM      4  O1  <0> d   1      -3.819   0.774  -0.192  0.00  0.00    -0.260 OA
ATOM      5  O2  <0> d   1      -1.648   1.174  -0.131  0.00  0.00    -0.275 OA
ATOM      6  C10 <0> d   1      -0.616   2.045  -0.072  0.00  0.00     0.091 A 
ATOM      7  C11 <0> d   1      -0.870   3.428  -0.008  0.00  0.00     0.009 A 
ATOM      8  C12 <0> d   1       0.193   4.337   0.048  0.00  0.00     0.052 A 
ATOM      9  C13 <0> d   1       1.491   3.872   0.046  0.00  0.00     0.077 A 
ATOM     10  C14 <0> d   1       1.745   2.494  -0.012  0.00  0.00     0.010 A 
ATOM     11  C15 <0> d   1       0.692   1.587  -0.068  0.00  0.00     0.053 A 
ENDROOT
BRANCH   1  12
ATOM     12  C6  <0> d   1      -2.580   5.366   0.053  0.00  0.00     0.274 C 
BRANCH  12  13
ATOM     13  N2  <0> d   1      -2.367   5.858   1.421  0.00  0.00    -0.064 N 
ATOM     14  C3  <0> d   1      -2.302   7.326   1.449  0.00  0.00     0.265 C 
ATOM     15  C2  <0> d   1      -2.001   7.794   2.874  0.00  0.00     0.299 C 
ATOM     16  N1  <0> d   1      -3.046   7.298   3.781  0.00  0.00     0.087 N 
ATOM     17  C1  <0> d   1      -2.833   7.790   5.149  0.00  0.00     0.310 C 
ATOM     18  C5  <0> d   1      -3.111   5.831   3.753  0.00  0.00     0.299 C 
ATOM     19  C4  <0> d   1      -3.412   5.363   2.327  0.00  0.00     0.265 C 
ATOM     20  H23 <0> d   1      -1.400   5.468   1.772  0.00  0.00     0.280 HD
ENDBRANCH  12  13
ENDBRANCH   1  12
BRANCH   9  21
ATOM     21  O3  <0> d   1       2.526   4.751   0.100  0.00  0.00    -0.360 OA
ATOM     22  H22 <0> d   1       3.562   4.382   0.099  0.00  0.00     0.217 HD
ENDBRANCH   9  21
BRANCH  10  23
ATOM     23  C16 <0> d   1       3.143   2.001  -0.013  0.00  0.00    -0.023 A 
ATOM     24  C21 <0> d   1       4.074   2.540  -0.900  0.00  0.00     0.012 A 
ATOM     25  C20 <0> d   1       5.374   2.078  -0.897  0.00  0.00     0.001 A 
ATOM     26  C19 <0> d   1       5.754   1.081  -0.016  0.00  0.00     0.000 A 
ATOM     27  C18 <0> d   1       4.835   0.542   0.866  0.00  0.00     0.001 A 
ATOM     28  C17 <0> d   1       3.533   1.001   0.876  0.00  0.00     0.012 A 
ENDBRANCH  10  23
TORSDOF 4
