REMARK  6 active torsions:
REMARK  status: ('A' for Active; 'I' for Inactive)
REMARK    1  A    between atoms: C2_2  and  O1_3 
REMARK    2  A    between atoms: O1_3  and  C3_4 
REMARK    3  A    between atoms: C3_4  and  C4_6 
REMARK    4  A    between atoms: C8_11  and  C12_16 
REMARK    5  A    between atoms: C9_12  and  O3_15 
REMARK    6  A    between atoms: C12_16  and  N2_17 
ROOT
ATOM      1  C4  <0> d   1       1.317  -2.213   2.273  0.00  0.00     0.074 A 
ATOM      2  C5  <0> d   1       0.673  -2.393   3.463  0.00  0.00     0.025 A 
ATOM      3  N1  <0> d   1       1.531  -2.911   4.373  0.00  0.00    -0.353 N 
ATOM      4  C6  <0> d   1       2.780  -3.092   3.811  0.00  0.00     0.046 A 
ATOM      5  C7  <0> d   1       2.704  -2.671   2.474  0.00  0.00     0.020 A 
ATOM      6  C8  <0> d   1       3.826  -2.745   1.653  0.00  0.00     0.014 A 
ATOM      7  C9  <0> d   1       5.013  -3.239   2.161  0.00  0.00     0.074 A 
ATOM      8  C10 <0> d   1       5.087  -3.659   3.486  0.00  0.00     0.039 A 
ATOM      9  C11 <0> d   1       3.984  -3.581   4.307  0.00  0.00     0.033 A 
ATOM     10  C18 <0> d   1       1.183  -3.234   5.760  0.00  0.00     0.156 C 
ATOM     11  C19 <0> d   1      -0.774  -2.065   3.724  0.00  0.00     0.069 C 
ENDROOT
BRANCH   6  12
ATOM     12  C12 <0> d   1       3.746  -2.291   0.218  0.00  0.00     0.277 C 
BRANCH  12  13
ATOM     13  N2  <0> d   1       3.208  -3.379  -0.610  0.00  0.00    -0.064 N 
ATOM     14  C16 <0> d   1       2.998  -2.892  -1.980  0.00  0.00     0.265 C 
ATOM     15  C15 <0> d   1       2.420  -4.019  -2.839  0.00  0.00     0.299 C 
ATOM     16  N3  <0> d   1       3.352  -5.155  -2.842  0.00  0.00     0.087 N 
ATOM     17  C14 <0> d   1       3.591  -5.638  -1.475  0.00  0.00     0.299 C 
ATOM     18  C17 <0> d   1       2.858  -6.238  -3.704  0.00  0.00     0.310 C 
ATOM     19  C13 <0> d   1       4.160  -4.498  -0.627  0.00  0.00     0.265 C 
ATOM     20  H28 <0> d   1       2.329  -3.691  -0.226  0.00  0.00     0.280 HD
ENDBRANCH  12  13
ENDBRANCH   6  12
BRANCH   7  21
ATOM     21  O3  <0> d   1       6.113  -3.314   1.364  0.00  0.00    -0.360 OA
ATOM     22  H8  <0> d   1       6.664  -2.519   1.379  0.00  0.00     0.217 HD
ENDBRANCH   7  21
BRANCH   1  23
ATOM     23  C3  <0> d   1       0.741  -1.675   1.035  0.00  0.00     0.296 C 
ATOM     24  O2  <0> d   1       0.295  -2.431   0.194  0.00  0.00    -0.259 OA
BRANCH  23  25
ATOM     25  O1  <0> d   1       0.705  -0.343   0.831  0.00  0.00    -0.318 OA
BRANCH  25  26
ATOM     26  C2  <0> d   1       0.130   0.111  -0.396  0.00  0.00     0.174 C 
ATOM     27  C1  <0> d   1       0.178   1.639  -0.447  0.00  0.00     0.034 C 
ENDBRANCH  25  26
ENDBRANCH  23  25
ENDBRANCH   1  23
TORSDOF 6
