REMARK  7 active torsions:
REMARK  status: ('A' for Active; 'I' for Inactive)
REMARK    1  A    between atoms: O1_2  and  C2_3 
REMARK    2  A    between atoms: C5_6  and  C8_9 
REMARK    3  A    between atoms: C14_15  and  C17_20 
REMARK    4  A    between atoms: C17_20  and  N1_21 
REMARK    5  A    between atoms: N1_21  and  C18_22 
REMARK    6  A    between atoms: C18_22  and  C19_23 
REMARK    7  A    between atoms: C19_23  and  O4_24 
ROOT
ATOM      1  C8  <0> d   1       3.539   3.681  -0.011  0.00  0.00     0.051 A 
ATOM      2  C9  <0> d   1       2.350   4.359   0.003  0.00  0.00     0.032 A 
ATOM      3  C10 <0> d   1       1.139   3.620   0.010  0.00  0.00    -0.000 A 
ATOM      4  C11 <0> d   1      -0.095   4.288   0.025  0.00  0.00     0.017 A 
ATOM      5  C12 <0> d   1      -1.256   3.573   0.032  0.00  0.00     0.041 A 
ATOM      6  C13 <0> d   1      -1.226   2.179   0.020  0.00  0.00     0.118 A 
ATOM      7  C14 <0> d   1      -0.018   1.503   0.010  0.00  0.00     0.039 A 
ATOM      8  C15 <0> d   1       1.174   2.214   0.003  0.00  0.00     0.100 A 
ATOM      9  O2  <0> d   1       2.352   1.554  -0.011  0.00  0.00    -0.273 OA
ATOM     10  C16 <0> d   1       3.522   2.216  -0.018  0.00  0.00     0.299 A 
ATOM     11  O3  <0> d   1       4.570   1.597  -0.031  0.00  0.00    -0.259 OA
ATOM     12  O5  <0> d   1      -2.390   1.481   0.022  0.00  0.00    -0.191 OA
ENDROOT
BRANCH   1  13
ATOM     13  C5  <0> d   1       4.824   4.418  -0.019  0.00  0.00    -0.020 A 
ATOM     14  C4  <0> d   1       5.825   4.088   0.895  0.00  0.00     0.015 A 
ATOM     15  C3  <0> d   1       7.020   4.775   0.884  0.00  0.00     0.037 A 
ATOM     16  C2  <0> d   1       7.228   5.795  -0.034  0.00  0.00     0.068 A 
ATOM     17  C7  <0> d   1       6.234   6.126  -0.946  0.00  0.00     0.037 A 
ATOM     18  C6  <0> d   1       5.039   5.439  -0.945  0.00  0.00     0.015 A 
BRANCH  16  19
ATOM     19  O1  <0> d   1       8.406   6.471  -0.042  0.00  0.00    -0.356 OA
ATOM     20  C1  <0> d   1       8.553   7.509  -1.013  0.00  0.00     0.210 C 
ENDBRANCH  16  19
ENDBRANCH   1  13
BRANCH   7  21
ATOM     21  C17 <0> d   1       0.002  -0.004   0.002  0.00  0.00     0.276 C 
BRANCH  21  22
ATOM     22  N1  <0> d   1       0.022  -0.501   1.384  0.00  0.00    -0.069 N 
ATOM     23  H13 <0> d   1       0.920  -0.125   1.896  0.00  0.00     0.277 HD
ATOM     24  H19 <0> d   1      -0.876  -0.149   1.913  0.00  0.00     0.277 HD
BRANCH  22  25
ATOM     25  C18 <0> d   1       0.042  -1.970   1.415  0.00  0.00     0.258 C 
BRANCH  25  26
ATOM     26  C19 <0> d   1       0.062  -2.449   2.868  0.00  0.00     0.191 C 
BRANCH  26  27
ATOM     27  O4  <0> d   1      -1.158  -2.074   3.510  0.00  0.00    -0.399 OA
ATOM     28  H18 <0> d   1      -1.326  -2.334   4.566  0.00  0.00     0.209 HD
ENDBRANCH  26  27
ENDBRANCH  25  26
ENDBRANCH  22  25
ENDBRANCH  21  22
ENDBRANCH   7  21
TORSDOF 7
