REMARK  7 active torsions:
REMARK  status: ('A' for Active; 'I' for Inactive)
REMARK    1  A    between atoms: C2_2  and  N1_3 
REMARK    2  A    between atoms: N2_6  and  C7_9 
REMARK    3  A    between atoms: C7_9  and  C8_10 
REMARK    4  A    between atoms: C9_11  and  O5_31 
REMARK    5  A    between atoms: C15_19  and  C17_21 
REMARK    6  A    between atoms: C20_24  and  O4_29 
REMARK    7  A    between atoms: C21_25  and  O3_27 
ROOT
ATOM      1  C8  <0> d   1       1.396   1.986  -0.001  0.00  0.00     0.035 A 
ATOM      2  C9  <0> d   1       2.056   2.225   1.194  0.00  0.00     0.076 A 
ATOM      3  C10 <0> d   1       3.365   2.702   1.194  0.00  0.00     0.038 A 
ATOM      4  C11 <0> d   1       4.010   2.950   0.018  0.00  0.00     0.017 A 
ATOM      5  C12 <0> d   1       3.356   2.720  -1.201  0.00  0.00    -0.000 A 
ATOM      6  C13 <0> d   1       2.036   2.233  -1.207  0.00  0.00     0.100 A 
ATOM      7  O1  <0> d   1       1.391   2.005  -2.372  0.00  0.00    -0.273 OA
ATOM      8  C14 <0> d   1       1.986   2.235  -3.554  0.00  0.00     0.299 A 
ATOM      9  O2  <0> d   1       1.382   2.021  -4.589  0.00  0.00    -0.259 OA
ATOM     10  C15 <0> d   1       3.360   2.742  -3.602  0.00  0.00     0.051 A 
ATOM     11  C16 <0> d   1       4.022   2.976  -2.427  0.00  0.00     0.032 A 
ENDROOT
BRANCH   1  12
ATOM     12  C7  <0> d   1      -0.018   1.465   0.010  0.00  0.00     0.279 C 
BRANCH  12  13
ATOM     13  N2  <0> d   1       0.002  -0.004   0.002  0.00  0.00    -0.064 N 
ATOM     14  C4  <0> d   1      -1.339  -0.550   0.250  0.00  0.00     0.265 C 
ATOM     15  C3  <0> d   1      -1.262  -2.078   0.313  0.00  0.00     0.300 C 
ATOM     16  N1  <0> d   1      -0.713  -2.590  -0.951  0.00  0.00     0.091 N 
ATOM     17  C6  <0> d   1       0.628  -2.044  -1.199  0.00  0.00     0.300 C 
ATOM     18  C5  <0> d   1       0.551  -0.516  -1.261  0.00  0.00     0.265 C 
ATOM     19  H29 <0> d   1       0.661  -0.337   0.818  0.00  0.00     0.280 HD
BRANCH  16  20
ATOM     20  C2  <0> d   1      -0.693  -4.059  -0.959  0.00  0.00     0.268 C 
ATOM     21  C1  <0> d   1      -0.356  -4.556  -2.365  0.00  0.00     0.037 C 
ENDBRANCH  16  20
ENDBRANCH  12  13
ENDBRANCH   1  12
BRANCH   2  22
ATOM     22  O5  <0> d   1       1.424   1.988   2.372  0.00  0.00    -0.360 OA
ATOM     23  H28 <0> d   1       1.945   2.177   3.322  0.00  0.00     0.217 HD
ENDBRANCH   2  22
BRANCH  10  24
ATOM     24  C17 <0> d   1       4.022   2.997  -4.902  0.00  0.00    -0.017 A 
ATOM     25  C22 <0> d   1       4.019   2.014  -5.892  0.00  0.00     0.052 A 
ATOM     26  C21 <0> d   1       4.634   2.258  -7.107  0.00  0.00     0.102 A 
ATOM     27  C20 <0> d   1       5.264   3.479  -7.335  0.00  0.00     0.101 A 
ATOM     28  C19 <0> d   1       5.272   4.453  -6.348  0.00  0.00     0.040 A 
ATOM     29  C18 <0> d   1       4.655   4.217  -5.136  0.00  0.00     0.015 A 
BRANCH  26  30
ATOM     30  O3  <0> d   1       4.629   1.304  -8.076  0.00  0.00    -0.353 OA
ATOM     31  C23 <0> d   1       3.964   0.076  -7.773  0.00  0.00     0.210 C 
ENDBRANCH  26  30
BRANCH  27  32
ATOM     32  O4  <0> d   1       5.874   3.716  -8.527  0.00  0.00    -0.353 OA
ATOM     33  C24 <0> d   1       6.501   4.989  -8.693  0.00  0.00     0.210 C 
ENDBRANCH  27  32
ENDBRANCH  10  24
TORSDOF 7
