REMARK  7 active torsions:
REMARK  status: ('A' for Active; 'I' for Inactive)
REMARK    1  A    between atoms: C2_2  and  O1_3 
REMARK    2  A    between atoms: O1_3  and  C3_4 
REMARK    3  A    between atoms: C3_4  and  C4_6 
REMARK    4  A    between atoms: C5_7  and  C19_26 
REMARK    5  A    between atoms: C10_13  and  O5_25 
REMARK    6  A    between atoms: C11_14  and  C13_17 
REMARK    7  A    between atoms: C13_17  and  N1_18 
ROOT
ATOM      1  C4  <0> d   1      -2.853  -2.420   0.016  0.00  0.00     0.166 C 
ATOM      2  C5  <0> d   1      -2.987  -3.792   0.016  0.00  0.00     0.065 C 
ATOM      3  C6  <0> d   1      -4.359  -4.354   0.009  0.00  0.00     0.199 C 
ATOM      4  O3  <0> d   1      -4.574  -5.532   0.235  0.00  0.00    -0.286 OA
ATOM      5  C7  <0> d   1      -5.446  -3.405  -0.288  0.00  0.00     0.050 A 
ATOM      6  C8  <0> d   1      -6.737  -3.849  -0.579  0.00  0.00     0.021 A 
ATOM      7  C9  <0> d   1      -7.719  -2.942  -0.856  0.00  0.00     0.038 A 
ATOM      8  C10 <0> d   1      -7.437  -1.577  -0.850  0.00  0.00     0.076 A 
ATOM      9  C11 <0> d   1      -6.162  -1.120  -0.560  0.00  0.00     0.038 A 
ATOM     10  C12 <0> d   1      -5.151  -2.028  -0.272  0.00  0.00     0.101 A 
ATOM     11  O4  <0> d   1      -3.911  -1.596   0.031  0.00  0.00    -0.302 OA
ENDROOT
BRANCH   9  12
ATOM     12  C13 <0> d   1      -5.873   0.359  -0.557  0.00  0.00     0.317 C 
BRANCH  12  13
ATOM     13  N1  <0> d   1      -6.106   0.901   0.788  0.00  0.00     0.096 N 
ATOM     14  C17 <0> d   1      -5.611   2.281   0.893  0.00  0.00     0.303 C 
ATOM     15  C16 <0> d   1      -5.800   2.780   2.327  0.00  0.00     0.302 C 
ATOM     16  N2  <0> d   1      -7.224   2.705   2.685  0.00  0.00     0.087 N 
ATOM     17  C15 <0> d   1      -7.718   1.325   2.581  0.00  0.00     0.302 C 
ATOM     18  C18 <0> d   1      -7.457   3.248   4.030  0.00  0.00     0.310 C 
ATOM     19  C14 <0> d   1      -7.529   0.826   1.146  0.00  0.00     0.303 C 
ENDBRANCH  12  13
ENDBRANCH   9  12
BRANCH   8  20
ATOM     20  O5  <0> d   1      -8.422  -0.686  -1.130  0.00  0.00    -0.360 OA
ATOM     21  H21 <0> d   1      -8.916  -0.389  -0.354  0.00  0.00     0.217 HD
ENDBRANCH   8  20
BRANCH   1  22
ATOM     22  C3  <0> d   1      -1.497  -1.837   0.006  0.00  0.00     0.318 C 
ATOM     23  O2  <0> d   1      -0.524  -2.564  -0.007  0.00  0.00    -0.257 OA
BRANCH  22  24
ATOM     24  O1  <0> d   1      -1.339  -0.499   0.012  0.00  0.00    -0.316 OA
BRANCH  24  25
ATOM     25  C2  <0> d   1       0.002  -0.004   0.002  0.00  0.00     0.175 C 
ATOM     26  C1  <0> d   1      -0.019   1.526   0.010  0.00  0.00     0.034 C 
ENDBRANCH  24  25
ENDBRANCH  22  24
ENDBRANCH   1  22
BRANCH   2  27
ATOM     27  C19 <0> d   1      -1.800  -4.674   0.022  0.00  0.00    -0.019 A 
ATOM     28  C24 <0> d   1      -1.548  -5.502   1.117  0.00  0.00     0.014 A 
ATOM     29  C23 <0> d   1      -0.443  -6.327   1.115  0.00  0.00     0.020 A 
ATOM     30  C22 <0> d   1       0.422  -6.327   0.033  0.00  0.00     0.011 A 
ATOM     31  C21 <0> d   1       0.180  -5.504  -1.054  0.00  0.00     0.020 A 
ATOM     32 Br1  <0> d   1       1.939  -7.456   0.040  0.00  0.00    -0.051 Br
ATOM     33  C20 <0> d   1      -0.925  -4.679  -1.066  0.00  0.00     0.014 A 
ENDBRANCH   2  27
TORSDOF 7
