REMARK  3 active torsions:
REMARK  status: ('A' for Active; 'I' for Inactive)
REMARK    1  A    between atoms: C5_5  and  C17_20 
REMARK    2  A    between atoms: C10_11  and  C11_12 
REMARK    3  A    between atoms: C17_20  and  N1_21 
ROOT
ATOM      1  C1  <0> d   1       3.015   0.391   0.601  0.00  0.00     0.049 C 
ATOM      2  C2  <0> d   1       2.471   1.788   0.745  0.00  0.00    -0.042 A 
ATOM      3  C3  <0> d   1       3.315   2.826   1.027  0.00  0.00     0.048 A 
ATOM      4  C4  <0> d   1       2.814   4.118   1.160  0.00  0.00     0.118 A 
ATOM      5  C5  <0> d   1       1.460   4.368   1.009  0.00  0.00     0.041 A 
ATOM      6  C6  <0> d   1       0.589   3.325   0.722  0.00  0.00     0.102 A 
ATOM      7  C7  <0> d   1       1.105   2.026   0.590  0.00  0.00     0.057 A 
ATOM      8  C8  <0> d   1      -0.043   1.151   0.291  0.00  0.00     0.219 A 
ATOM      9  O1  <0> d   1      -0.034  -0.053   0.103  0.00  0.00    -0.284 OA
ATOM     10  C9  <0> d   1      -1.201   2.057   0.265  0.00  0.00     0.128 A 
ATOM     11  C10 <0> d   1      -2.489   1.706   0.021  0.00  0.00     0.056 C 
ATOM     12  O2  <0> d   1      -0.749   3.305   0.531  0.00  0.00    -0.305 OA
ATOM     13  O4  <0> d   1       3.661   5.141   1.440  0.00  0.00    -0.191 OA
ENDROOT
BRANCH  11  14
ATOM     14  C11 <0> d   1      -3.558   2.706   0.141  0.00  0.00     0.005 A 
ATOM     15  C16 <0> d   1      -4.895   2.299   0.244  0.00  0.00     0.126 A 
ATOM     16  C15 <0> d   1      -5.894   3.248   0.361  0.00  0.00     0.043 A 
ATOM     17  F1  <0> d   1      -5.207   0.985   0.233  0.00  0.00    -0.205 F 
ATOM     18  C14 <0> d   1      -5.575   4.594   0.368  0.00  0.00     0.003 A 
ATOM     19  C13 <0> d   1      -4.256   5.003   0.262  0.00  0.00     0.001 A 
ATOM     20  C12 <0> d   1      -3.248   4.071   0.149  0.00  0.00     0.014 A 
ENDBRANCH  11  14
BRANCH   5  21
ATOM     21  C17 <0> d   1       0.932   5.772   1.156  0.00  0.00     0.317 C 
BRANCH  21  22
ATOM     22  N1  <0> d   1       0.571   6.015   2.559  0.00  0.00     0.097 N 
ATOM     23  C21 <0> d   1       0.278   7.437   2.789  0.00  0.00     0.299 C 
ATOM     24  C20 <0> d   1      -0.035   7.654   4.272  0.00  0.00     0.198 C 
ATOM     25  O3  <0> d   1      -1.123   6.809   4.654  0.00  0.00    -0.388 OA
ATOM     26  C19 <0> d   1      -0.872   5.416   4.444  0.00  0.00     0.198 C 
ATOM     27  C18 <0> d   1      -0.567   5.176   2.962  0.00  0.00     0.299 C 
ENDBRANCH  21  22
ENDBRANCH   5  21
TORSDOF 3
