REMARK  6 active torsions:
REMARK  status: ('A' for Active; 'I' for Inactive)
REMARK    1  A    between atoms: C3_3  and  C20_24 
REMARK    2  A    between atoms: C9_10  and  C11_13 
REMARK    3  A    between atoms: C11_13  and  N1_14 
REMARK    4  A    between atoms: N1_14  and  C13_16 
REMARK    5  A    between atoms: C13_16  and  C14_17 
REMARK    6  A    between atoms: C23_27  and  O4_30 
ROOT
ATOM      1  C1  <0> d   1       4.131   8.491  -3.229  0.00  0.00     0.077 C 
ATOM      2  C2  <0> d   1       2.765   8.517  -3.866  0.00  0.00     0.065 A 
ATOM      3  C3  <0> d   1       2.655   8.924  -5.157  0.00  0.00     0.054 A 
ATOM      4  C4  <0> d   1       1.320   8.948  -5.779  0.00  0.00     0.198 A 
ATOM      5  O1  <0> d   1       1.160   9.304  -6.934  0.00  0.00    -0.286 OA
ATOM      6  C5  <0> d   1       0.188   8.521  -4.938  0.00  0.00     0.050 A 
ATOM      7  C6  <0> d   1      -1.117   8.508  -5.433  0.00  0.00     0.021 A 
ATOM      8  C7  <0> d   1      -2.144   8.107  -4.627  0.00  0.00     0.041 A 
ATOM      9  C8  <0> d   1      -1.894   7.712  -3.314  0.00  0.00     0.118 A 
ATOM     10  C9  <0> d   1      -0.605   7.719  -2.808  0.00  0.00     0.039 A 
ATOM     11  C10 <0> d   1       0.450   8.129  -3.613  0.00  0.00     0.100 A 
ATOM     12  O2  <0> d   1       1.711   8.137  -3.139  0.00  0.00    -0.313 OA
ATOM     13  O3  <0> d   1      -2.924   7.315  -2.523  0.00  0.00    -0.191 OA
ENDROOT
BRANCH  10  14
ATOM     14  C11 <0> d   1      -0.349   7.290  -1.387  0.00  0.00     0.279 C 
BRANCH  14  15
ATOM     15  N1  <0> d   1      -0.090   5.844  -1.351  0.00  0.00    -0.067 N 
ATOM     16  C12 <0> d   1       1.161   5.516  -2.047  0.00  0.00     0.270 C 
ATOM     17  H25 <0> d   1      -0.913   5.341  -1.880  0.00  0.00     0.280 HD
BRANCH  15  18
ATOM     18  C13 <0> d   1      -0.070   5.347   0.031  0.00  0.00     0.273 C 
BRANCH  18  19
ATOM     19  C14 <0> d   1      -0.050   3.840   0.023  0.00  0.00    -0.033 A 
ATOM     20  C19 <0> d   1      -1.238   3.133   0.030  0.00  0.00     0.009 A 
ATOM     21  C18 <0> d   1      -1.219   1.751   0.017  0.00  0.00     0.001 A 
ATOM     22  C17 <0> d   1      -0.013   1.076   0.008  0.00  0.00     0.000 A 
ATOM     23  C16 <0> d   1       1.175   1.783   0.000  0.00  0.00     0.001 A 
ATOM     24  C15 <0> d   1       1.156   3.165   0.008  0.00  0.00     0.009 A 
ENDBRANCH  18  19
ENDBRANCH  15  18
ENDBRANCH  14  15
ENDBRANCH  10  14
BRANCH   3  25
ATOM     25  C20 <0> d   1       3.855   9.336  -5.925  0.00  0.00    -0.019 A 
ATOM     26  C25 <0> d   1       3.989  10.655  -6.356  0.00  0.00     0.015 A 
ATOM     27  C24 <0> d   1       5.106  11.036  -7.069  0.00  0.00     0.037 A 
ATOM     28  C23 <0> d   1       6.096  10.107  -7.358  0.00  0.00     0.068 A 
ATOM     29  C22 <0> d   1       5.966   8.793  -6.930  0.00  0.00     0.037 A 
ATOM     30  C21 <0> d   1       4.854   8.408  -6.212  0.00  0.00     0.015 A 
BRANCH  28  31
ATOM     31  O4  <0> d   1       7.196  10.486  -8.061  0.00  0.00    -0.356 OA
ATOM     32  C26 <0> d   1       8.177   9.479  -8.323  0.00  0.00     0.210 C 
ENDBRANCH  28  31
ENDBRANCH   3  25
TORSDOF 6
