REMARK  4 active torsions:
REMARK  status: ('A' for Active; 'I' for Inactive)
REMARK    1  A    between atoms: N2_5  and  C6_8 
REMARK    2  A    between atoms: C6_8  and  C7_9 
REMARK    3  A    between atoms: C8_10  and  O3_28 
REMARK    4  A    between atoms: C14_17  and  C15_18 
ROOT
ATOM      1  C7  <0> d   1       4.285   0.139   2.836  0.00  0.00     0.038 A 
ATOM      2  C8  <0> d   1       5.454  -0.199   2.174  0.00  0.00     0.076 A 
ATOM      3  C9  <0> d   1       6.576   0.623   2.254  0.00  0.00     0.038 A 
ATOM      4  C10 <0> d   1       6.535   1.769   2.997  0.00  0.00     0.021 A 
ATOM      5  C11 <0> d   1       5.365   2.119   3.672  0.00  0.00     0.051 A 
ATOM      6  C12 <0> d   1       4.227   1.301   3.595  0.00  0.00     0.101 A 
ATOM      7  O1  <0> d   1       3.227   1.841   4.326  0.00  0.00    -0.305 OA
ATOM      8  C13 <0> d   1       3.604   3.000   4.915  0.00  0.00     0.128 A 
ATOM      9  C14 <0> d   1       2.833   3.783   5.711  0.00  0.00     0.057 C 
ATOM     10  C21 <0> d   1       5.002   3.257   4.535  0.00  0.00     0.218 A 
ATOM     11  O2  <0> d   1       5.702   4.200   4.862  0.00  0.00    -0.284 OA
ENDROOT
BRANCH   1  12
ATOM     12  C6  <0> d   1       3.077  -0.757   2.736  0.00  0.00     0.317 C 
BRANCH  12  13
ATOM     13  N2  <0> d   1       3.028  -1.644   3.906  0.00  0.00     0.096 N 
ATOM     14  C3  <0> d   1       4.309  -2.341   4.093  0.00  0.00     0.300 C 
ATOM     15  C2  <0> d   1       4.243  -3.191   5.364  0.00  0.00     0.264 C 
ATOM     16  N1  <0> d   1       3.137  -4.151   5.251  0.00  0.00    -0.072 N 
ATOM     17  C1  <0> d   1       3.088  -5.038   6.421  0.00  0.00     0.269 C 
ATOM     18  C5  <0> d   1       1.856  -3.455   5.064  0.00  0.00     0.264 C 
ATOM     19  H21 <0> d   1       3.317  -4.775   4.363  0.00  0.00     0.279 HD
ATOM     20  C4  <0> d   1       1.922  -2.605   3.793  0.00  0.00     0.300 C 
ENDBRANCH  12  13
ENDBRANCH   1  12
BRANCH   2  21
ATOM     21  O3  <0> d   1       5.506  -1.338   1.438  0.00  0.00    -0.360 OA
ATOM     22  H20 <0> d   1       6.433  -1.611   0.911  0.00  0.00     0.217 HD
ENDBRANCH   2  21
BRANCH   9  23
ATOM     23  C15 <0> d   1       1.468   3.363   6.053  0.00  0.00     0.027 A 
ATOM     24  C20 <0> d   1       0.524   3.145   5.042  0.00  0.00     0.047 A 
ATOM     25  C19 <0> d   1      -0.755   2.744   5.372  0.00  0.00     0.025 A 
ATOM     26 Cl1  <0> d   1       0.962   3.370   3.377  0.00  0.00    -0.083 Cl
ATOM     27  C18 <0> d   1      -1.109   2.570   6.699  0.00  0.00     0.005 A 
ATOM     28  C17 <0> d   1      -0.186   2.789   7.706  0.00  0.00     0.043 A 
ATOM     29  C16 <0> d   1       1.101   3.184   7.394  0.00  0.00     0.128 A 
ATOM     30  F1  <0> d   1       2.001   3.398   8.378  0.00  0.00    -0.205 F 
ENDBRANCH   9  23
TORSDOF 4
