REMARK  6 active torsions:
REMARK  status: ('A' for Active; 'I' for Inactive)
REMARK    1  A    between atoms: C3_3  and  O4_21 
REMARK    2  A    between atoms: C9_10  and  C11_13 
REMARK    3  A    between atoms: C14_16  and  O3_19 
REMARK    4  A    between atoms: O4_21  and  C18_22 
REMARK    5  A    between atoms: C18_22  and  C19_23 
REMARK    6  A    between atoms: C19_23  and  N1_24 
ROOT
ATOM      1  C1  <0> d   1      -0.408   1.538  -0.015  0.00  0.00     0.054 C 
ATOM      2  C2  <0> d   1      -0.283   0.036  -0.004  0.00  0.00     0.006 A 
ATOM      3  C3  <0> d   1      -0.157  -0.659  -1.194  0.00  0.00     0.077 A 
ATOM      4  C4  <0> d   1      -0.041  -2.047  -1.198  0.00  0.00     0.038 A 
ATOM      5  C5  <0> d   1      -0.046  -2.742  -0.021  0.00  0.00     0.021 A 
ATOM      6  C6  <0> d   1      -0.169  -2.055   1.186  0.00  0.00     0.049 A 
ATOM      7  C7  <0> d   1      -0.289  -0.654   1.202  0.00  0.00     0.097 A 
ATOM      8  O1  <0> d   1      -0.418   0.005   2.369  0.00  0.00    -0.320 OA
ATOM      9  C8  <0> d   1      -0.136  -0.574   3.538  0.00  0.00     0.159 C 
ATOM     10  C9  <0> d   1      -0.002  -1.919   3.679  0.00  0.00     0.048 C 
ATOM     11  C10 <0> d   1      -0.171  -2.765   2.479  0.00  0.00     0.197 C 
ATOM     12  O2  <0> d   1      -0.291  -3.976   2.552  0.00  0.00    -0.286 OA
ENDROOT
BRANCH   3  13
ATOM     13  O4  <0> d   1      -0.148   0.019  -2.370  0.00  0.00    -0.349 OA
BRANCH  13  14
ATOM     14  C18 <0> d   1      -0.015  -0.755  -3.564  0.00  0.00     0.206 C 
BRANCH  14  15
ATOM     15  C19 <0> d   1      -0.025   0.175  -4.779  0.00  0.00     0.299 C 
BRANCH  15  16
ATOM     16  N1  <0> d   1       1.162   1.040  -4.743  0.00  0.00     0.093 N 
ATOM     17  C23 <0> d   1       2.366   0.297  -5.142  0.00  0.00     0.302 C 
ATOM     18  C22 <0> d   1       3.590   1.208  -5.016  0.00  0.00     0.302 C 
ATOM     19  N2  <0> d   1       3.402   2.396  -5.861  0.00  0.00     0.087 N 
ATOM     20  C21 <0> d   1       2.198   3.138  -5.462  0.00  0.00     0.302 C 
ATOM     21  C24 <0> d   1       4.590   3.260  -5.825  0.00  0.00     0.310 C 
ATOM     22  C20 <0> d   1       0.975   2.227  -5.589  0.00  0.00     0.302 C 
ENDBRANCH  15  16
ENDBRANCH  14  15
ENDBRANCH  13  14
ENDBRANCH   3  13
BRANCH  10  23
ATOM     23  C11 <0> d   1       0.295  -2.521   5.002  0.00  0.00    -0.020 A 
ATOM     24  C16 <0> d   1      -0.634  -2.426   6.036  0.00  0.00     0.015 A 
ATOM     25  C15 <0> d   1      -0.357  -2.992   7.263  0.00  0.00     0.037 A 
ATOM     26  C14 <0> d   1       0.850  -3.646   7.472  0.00  0.00     0.068 A 
ATOM     27  C13 <0> d   1       1.779  -3.737   6.445  0.00  0.00     0.037 A 
ATOM     28  C12 <0> d   1       1.506  -3.178   5.214  0.00  0.00     0.015 A 
BRANCH  26  29
ATOM     29  O3  <0> d   1       1.121  -4.199   8.683  0.00  0.00    -0.356 OA
ATOM     30  C17 <0> d   1       0.120  -4.068   9.695  0.00  0.00     0.210 C 
ENDBRANCH  26  29
ENDBRANCH  10  23
TORSDOF 6
