REMARK  3 active torsions:
REMARK  status: ('A' for Active; 'I' for Inactive)
REMARK    1  A    between atoms: C5_5  and  C19_23 
REMARK    2  A    between atoms: C10_11  and  C11_12 
REMARK    3  A    between atoms: C19_23  and  N1_24 
ROOT
ATOM      1  C1  <0> d   1       4.526   1.477  -0.033  0.00  0.00     0.049 C 
ATOM      2  C2  <0> d   1       3.551   0.328  -0.030  0.00  0.00    -0.042 A 
ATOM      3  C3  <0> d   1       4.011  -0.959  -0.042  0.00  0.00     0.048 A 
ATOM      4  C4  <0> d   1       3.113  -2.022  -0.039  0.00  0.00     0.118 A 
ATOM      5  C5  <0> d   1       1.746  -1.791  -0.024  0.00  0.00     0.041 A 
ATOM      6  C6  <0> d   1       1.263  -0.489  -0.013  0.00  0.00     0.102 A 
ATOM      7  C7  <0> d   1       2.179   0.576  -0.016  0.00  0.00     0.057 A 
ATOM      8  C8  <0> d   1       1.377   1.813  -0.001  0.00  0.00     0.219 A 
ATOM      9  O1  <0> d   1       1.780   2.963   0.001  0.00  0.00    -0.284 OA
ATOM     10  C9  <0> d   1      -0.016   1.349   0.009  0.00  0.00     0.129 A 
ATOM     11  C10 <0> d   1      -1.127   2.139   0.019  0.00  0.00     0.078 C 
ATOM     12  O3  <0> d   1       0.002  -0.004   0.002  0.00  0.00    -0.305 OA
ATOM     13  O5  <0> d   1       3.579  -3.297  -0.050  0.00  0.00    -0.191 OA
ENDROOT
BRANCH  11  14
ATOM     14  C11 <0> d   1      -2.414   1.550   0.023  0.00  0.00     0.079 A 
ATOM     15  O2  <0> d   1      -2.665   0.223   0.012  0.00  0.00    -0.310 OA
ATOM     16  C18 <0> d   1      -3.997   0.008   0.023  0.00  0.00     0.086 A 
ATOM     17  C13 <0> d   1      -4.629   1.266   0.033  0.00  0.00     0.002 A 
ATOM     18  C17 <0> d   1      -4.773  -1.143   0.022  0.00  0.00     0.039 A 
ATOM     19  C12 <0> d   1      -3.593   2.234   0.033  0.00  0.00     0.051 A 
ATOM     20  C14 <0> d   1      -6.026   1.344   0.041  0.00  0.00     0.033 A 
ATOM     21  C15 <0> d   1      -6.770   0.198   0.039  0.00  0.00     0.011 A 
ATOM     22  C16 <0> d   1      -6.149  -1.045   0.029  0.00  0.00     0.022 A 
ATOM     23 Br1  <0> d   1      -8.658   0.303   0.050  0.00  0.00    -0.051 Br
ENDBRANCH  11  14
BRANCH   5  24
ATOM     24  C19 <0> d   1       0.786  -2.952  -0.022  0.00  0.00     0.317 C 
BRANCH  24  25
ATOM     25  N1  <0> d   1       0.461  -3.322  -1.406  0.00  0.00     0.097 N 
ATOM     26  C23 <0> d   1      -0.281  -4.590  -1.452  0.00  0.00     0.299 C 
ATOM     27  C22 <0> d   1      -0.546  -4.967  -2.912  0.00  0.00     0.198 C 
ATOM     28  O4  <0> d   1      -1.254  -3.903  -3.553  0.00  0.00    -0.388 OA
ATOM     29  C21 <0> d   1      -0.560  -2.652  -3.527  0.00  0.00     0.198 C 
ATOM     30  C20 <0> d   1      -0.295  -2.252  -2.073  0.00  0.00     0.299 C 
ENDBRANCH  24  25
ENDBRANCH   5  24
TORSDOF 3
