REMARK  5 active torsions:
REMARK  status: ('A' for Active; 'I' for Inactive)
REMARK    1  A    between atoms: O1_2  and  C2_3 
REMARK    2  A    between atoms: C7_8  and  C8_9 
REMARK    3  A    between atoms: C9_10  and  C10_11 
REMARK    4  A    between atoms: C17_19  and  C19_22 
REMARK    5  A    between atoms: C19_22  and  N1_23 
ROOT
ATOM      1  C10 <0> d   1       2.416   1.717  -0.011  0.00  0.00     0.041 C 
ATOM      2  C11 <0> d   1       1.103   2.095   0.003  0.00  0.00     0.127 A 
ATOM      3  C12 <0> d   1      -0.015   1.216   0.009  0.00  0.00     0.218 A 
ATOM      4  O2  <0> d   1       0.002  -0.004   0.002  0.00  0.00    -0.284 OA
ATOM      5  C13 <0> d   1      -1.197   2.095   0.018  0.00  0.00     0.051 A 
ATOM      6  C14 <0> d   1      -2.571   1.857   0.036  0.00  0.00     0.021 A 
ATOM      7  C15 <0> d   1      -3.443   2.908   0.050  0.00  0.00     0.041 A 
ATOM      8  C16 <0> d   1      -2.965   4.216   0.051  0.00  0.00     0.118 A 
ATOM      9  C17 <0> d   1      -1.602   4.467   0.040  0.00  0.00     0.041 A 
ATOM     10  C18 <0> d   1      -0.703   3.410   0.026  0.00  0.00     0.101 A 
ATOM     11  O3  <0> d   1       0.647   3.369   0.013  0.00  0.00    -0.305 OA
ATOM     12  O5  <0> d   1      -3.841   5.253   0.065  0.00  0.00    -0.191 OA
ENDROOT
BRANCH   1  13
ATOM     13  C9  <0> d   1       3.428   2.693  -0.015  0.00  0.00     0.004 C 
ATOM     14  C8  <0> d   1       4.732   2.318  -0.029  0.00  0.00     0.014 C 
BRANCH  14  15
ATOM     15  C7  <0> d   1       5.788   3.337  -0.033  0.00  0.00    -0.003 A 
ATOM     16  C2  <0> d   1       7.140   2.954  -0.041  0.00  0.00     0.078 A 
ATOM     17  C3  <0> d   1       8.128   3.925  -0.051  0.00  0.00     0.037 A 
ATOM     18  C4  <0> d   1       7.785   5.263  -0.042  0.00  0.00     0.003 A 
ATOM     19  C5  <0> d   1       6.453   5.647  -0.029  0.00  0.00     0.001 A 
ATOM     20  C6  <0> d   1       5.456   4.697  -0.024  0.00  0.00     0.014 A 
BRANCH  16  21
ATOM     21  O1  <0> d   1       7.476   1.639  -0.044  0.00  0.00    -0.355 OA
ATOM     22  C1  <0> d   1       8.870   1.326  -0.052  0.00  0.00     0.210 C 
ENDBRANCH  16  21
ENDBRANCH  14  15
ENDBRANCH   1  13
BRANCH   9  23
ATOM     23  C19 <0> d   1      -1.097   5.887   0.041  0.00  0.00     0.317 C 
BRANCH  23  24
ATOM     24  N1  <0> d   1      -0.947   6.355  -1.343  0.00  0.00     0.097 N 
ATOM     25  C23 <0> d   1      -0.686   7.801  -1.385  0.00  0.00     0.299 C 
ATOM     26  C22 <0> d   1      -0.595   8.256  -2.844  0.00  0.00     0.198 C 
ATOM     27  O4  <0> d   1       0.421   7.503  -3.510  0.00  0.00    -0.388 OA
ATOM     28  C21 <0> d   1       0.199   6.090  -3.490  0.00  0.00     0.198 C 
ATOM     29  C20 <0> d   1       0.116   5.614  -2.037  0.00  0.00     0.299 C 
ENDBRANCH  23  24
ENDBRANCH   9  23
TORSDOF 5
