REMARK  5 active torsions:
REMARK  status: ('A' for Active; 'I' for Inactive)
REMARK    1  A    between atoms: C4_4  and  C7_7 
REMARK    2  A    between atoms: C8_8  and  C9_9 
REMARK    3  A    between atoms: C9_9  and  N1_10 
REMARK    4  A    between atoms: N2_13  and  C14_16 
REMARK    5  A    between atoms: C14_16  and  C15_17 
ROOT
ATOM      1  N1  <0> d   1       0.385   5.673  -3.190  0.00  0.00     0.095 N 
ATOM      2  C10 <0> d   1      -0.976   6.055  -2.788  0.00  0.00     0.303 C 
ATOM      3  C11 <0> d   1      -1.237   5.572  -1.359  0.00  0.00     0.303 C 
ATOM      4  N2  <0> d   1      -1.063   4.114  -1.299  0.00  0.00     0.096 N 
ATOM      5  C12 <0> d   1       0.298   3.732  -1.702  0.00  0.00     0.303 C 
ATOM      6  C13 <0> d   1       0.559   4.215  -3.130  0.00  0.00     0.303 C 
ENDROOT
BRANCH   4   7
ATOM      7  C14 <0> d   1      -1.379   3.601   0.041  0.00  0.00     0.312 C 
BRANCH   7   8
ATOM      8  C15 <0> d   1      -1.569   2.107  -0.025  0.00  0.00    -0.011 A 
ATOM      9  C19 <0> d   1      -2.791   1.528  -0.592  0.00  0.00     0.008 A 
ATOM     10  C18 <0> d   1      -2.928   0.130  -0.633  0.00  0.00     0.090 A 
ATOM     11  C20 <0> d   1      -3.811   2.344  -1.091  0.00  0.00     0.038 A 
ATOM     12  O2  <0> d   1      -1.941  -0.656  -0.151  0.00  0.00    -0.275 OA
ATOM     13  C23 <0> d   1      -4.079  -0.429  -1.173  0.00  0.00     0.040 A 
ATOM     14  C17 <0> d   1      -0.822  -0.134   0.373  0.00  0.00     0.288 A 
ATOM     15  C16 <0> d   1      -0.619   1.262   0.448  0.00  0.00     0.092 A 
ATOM     16  O1  <0> d   1       0.041  -0.882   0.796  0.00  0.00    -0.260 OA
ATOM     17  C22 <0> d   1      -5.077   0.388  -1.662  0.00  0.00     0.026 A 
ATOM     18  C21 <0> d   1      -4.944   1.769  -1.622  0.00  0.00     0.035 A 
ATOM     19 Cl1  <0> d   1      -6.214   2.776  -2.245  0.00  0.00    -0.084 Cl
ENDBRANCH   7   8
ENDBRANCH   4   7
BRANCH   1  20
ATOM     20  C9  <0> d   1       0.701   6.186  -4.530  0.00  0.00     0.300 C 
BRANCH  20  21
ATOM     21  C8  <0> d   1       1.993   5.577  -5.010  0.00  0.00     0.004 C 
ATOM     22  C7  <0> d   1       2.033   4.935  -6.169  0.00  0.00     0.009 C 
BRANCH  22  23
ATOM     23  C4  <0> d   1       3.301   4.337  -6.639  0.00  0.00    -0.036 A 
ATOM     24  C3  <0> d   1       3.347   3.661  -7.859  0.00  0.00     0.011 A 
ATOM     25  C2  <0> d   1       4.533   3.105  -8.292  0.00  0.00     0.001 A 
ATOM     26  C1  <0> d   1       5.675   3.217  -7.520  0.00  0.00     0.000 A 
ATOM     27  C6  <0> d   1       5.637   3.886  -6.309  0.00  0.00     0.001 A 
ATOM     28  C5  <0> d   1       4.458   4.451  -5.867  0.00  0.00     0.011 A 
ENDBRANCH  22  23
ENDBRANCH  20  21
ENDBRANCH   1  20
TORSDOF 5
