REMARK  8 active torsions:
REMARK  status: ('A' for Active; 'I' for Inactive)
REMARK    1  A    between atoms: O1_2  and  C2_3 
REMARK    2  A    between atoms: C7_8  and  C8_9 
REMARK    3  A    between atoms: C14_16  and  O5_30 
REMARK    4  A    between atoms: C15_17  and  C17_20 
REMARK    5  A    between atoms: C17_20  and  N1_21 
REMARK    6  A    between atoms: N2_24  and  C22_27 
REMARK    7  A    between atoms: C22_27  and  C23_28 
REMARK    8  A    between atoms: C23_28  and  O4_29 
ROOT
ATOM      1  C8  <0> d   1      -2.564   5.112  -0.198  0.00  0.00     0.055 C 
ATOM      2  C9  <0> d   1      -1.622   4.322   0.378  0.00  0.00     0.128 A 
ATOM      3  C10 <0> d   1      -0.279   4.742   0.803  0.00  0.00     0.218 A 
ATOM      4  O2  <0> d   1       0.219   5.851   0.716  0.00  0.00    -0.284 OA
ATOM      5  C11 <0> d   1       0.332   3.521   1.359  0.00  0.00     0.051 A 
ATOM      6  C12 <0> d   1       1.579   3.249   1.923  0.00  0.00     0.021 A 
ATOM      7  C13 <0> d   1       1.868   1.987   2.361  0.00  0.00     0.038 A 
ATOM      8  C14 <0> d   1       0.921   0.973   2.245  0.00  0.00     0.076 A 
ATOM      9  C15 <0> d   1      -0.321   1.229   1.687  0.00  0.00     0.038 A 
ATOM     10  C16 <0> d   1      -0.631   2.506   1.237  0.00  0.00     0.101 A 
ATOM     11  O3  <0> d   1      -1.746   3.004   0.661  0.00  0.00    -0.305 OA
ENDROOT
BRANCH   9  12
ATOM     12  C17 <0> d   1      -1.336   0.121   1.569  0.00  0.00     0.317 C 
BRANCH  12  13
ATOM     13  N1  <0> d   1      -1.170  -0.560   0.278  0.00  0.00     0.096 N 
ATOM     14  C21 <0> d   1      -1.976  -1.787   0.222  0.00  0.00     0.300 C 
ATOM     15  C20 <0> d   1      -1.714  -2.507  -1.103  0.00  0.00     0.265 C 
ATOM     16  N2  <0> d   1      -2.047  -1.610  -2.218  0.00  0.00    -0.066 N 
ATOM     17  C19 <0> d   1      -1.242  -0.383  -2.163  0.00  0.00     0.265 C 
ATOM     18  H26 <0> d   1      -3.106  -1.326  -2.121  0.00  0.00     0.280 HD
ATOM     19  C18 <0> d   1      -1.504   0.337  -0.837  0.00  0.00     0.300 C 
BRANCH  16  20
ATOM     20  C22 <0> d   1      -1.881  -2.291  -3.509  0.00  0.00     0.260 C 
BRANCH  20  21
ATOM     21  C23 <0> d   1      -3.042  -3.263  -3.727  0.00  0.00     0.192 C 
BRANCH  21  22
ATOM     22  O4  <0> d   1      -4.268  -2.532  -3.796  0.00  0.00    -0.399 OA
ATOM     23  H24 <0> d   1      -5.218  -3.065  -3.950  0.00  0.00     0.209 HD
ENDBRANCH  21  22
ENDBRANCH  20  21
ENDBRANCH  16  20
ENDBRANCH  12  13
ENDBRANCH   9  12
BRANCH   8  24
ATOM     24  O5  <0> d   1       1.217  -0.277   2.683  0.00  0.00    -0.360 OA
ATOM     25  H25 <0> d   1       0.473  -1.082   2.594  0.00  0.00     0.217 HD
ENDBRANCH   8  24
BRANCH   1  26
ATOM     26  C7  <0> d   1      -3.912   4.587  -0.443  0.00  0.00     0.001 A 
ATOM     27  C2  <0> d   1      -4.981   5.466  -0.682  0.00  0.00     0.078 A 
ATOM     28  C3  <0> d   1      -6.248   4.957  -0.919  0.00  0.00     0.039 A 
ATOM     29  C4  <0> d   1      -6.461   3.592  -0.907  0.00  0.00     0.022 A 
ATOM     30  C5  <0> d   1      -5.411   2.720  -0.665  0.00  0.00     0.011 A 
ATOM     31  C6  <0> d   1      -4.142   3.205  -0.434  0.00  0.00     0.033 A 
ATOM     32 Br1  <0> d   1      -5.721   0.854  -0.653  0.00  0.00    -0.051 Br
BRANCH  27  33
ATOM     33  O1  <0> d   1      -4.773   6.807  -0.688  0.00  0.00    -0.355 OA
ATOM     34  C1  <0> d   1      -5.907   7.639  -0.938  0.00  0.00     0.210 C 
ENDBRANCH  27  33
ENDBRANCH   1  26
TORSDOF 8
