REMARK  7 active torsions:
REMARK  status: ('A' for Active; 'I' for Inactive)
REMARK    1  A    between atoms: C2_2  and  O1_3 
REMARK    2  A    between atoms: O1_3  and  C3_4 
REMARK    3  A    between atoms: C6_7  and  C9_11 
REMARK    4  A    between atoms: C7_8  and  O2_10 
REMARK    5  A    between atoms: C10_12  and  C12_17 
REMARK    6  A    between atoms: C15_20  and  O4_25 
REMARK    7  A    between atoms: C16_21  and  O3_23 
ROOT
ATOM      1  C9  <0> d   1       0.918  -6.046  -1.918  0.00  0.00     0.102 A 
ATOM      2  C10 <0> d   1       0.690  -7.010  -0.903  0.00  0.00     0.022 A 
ATOM      3  C11 <0> d   1       1.147  -8.207  -1.365  0.00  0.00     0.124 A 
ATOM      4  N1  <0> d   1       1.639  -8.011  -2.606  0.00  0.00    -0.288 N 
ATOM      5  H1  <0> d   1       2.031  -8.692  -3.175  0.00  0.00     0.188 HD
ATOM      6  N2  <0> d   1       1.482  -6.659  -2.936  0.00  0.00    -0.174 NA
ENDROOT
BRANCH   1   7
ATOM      7  C6  <0> d   1       0.576  -4.605  -1.847  0.00  0.00     0.029 A 
ATOM      8  C5  <0> d   1      -0.682  -4.207  -1.400  0.00  0.00     0.019 A 
ATOM      9  C4  <0> d   1      -0.997  -2.866  -1.335  0.00  0.00     0.038 A 
ATOM     10  C3  <0> d   1      -0.063  -1.910  -1.712  0.00  0.00     0.071 A 
ATOM     11  C8  <0> d   1       1.190  -2.298  -2.163  0.00  0.00     0.074 A 
ATOM     12  C7  <0> d   1       1.516  -3.642  -2.227  0.00  0.00     0.081 A 
BRANCH  10  13
ATOM     13  O1  <0> d   1      -0.380  -0.590  -1.645  0.00  0.00    -0.351 OA
BRANCH  13  14
ATOM     14  C2  <0> d   1      -1.687  -0.260  -1.172  0.00  0.00     0.171 C 
ATOM     15  C1  <0> d   1      -1.859   1.261  -1.167  0.00  0.00     0.034 C 
ENDBRANCH  13  14
ENDBRANCH  10  13
BRANCH  12  16
ATOM     16  O2  <0> d   1       2.745  -4.024  -2.664  0.00  0.00    -0.360 OA
ATOM     17  H10 <0> d   1       2.796  -4.165  -3.619  0.00  0.00     0.217 HD
ENDBRANCH  12  16
ENDBRANCH   1   7
BRANCH   2  18
ATOM     18  C12 <0> d   1       0.067  -6.760   0.420  0.00  0.00    -0.019 A 
ATOM     19  C17 <0> d   1      -1.045  -7.499   0.819  0.00  0.00     0.052 A 
ATOM     20  C16 <0> d   1      -1.619  -7.267   2.056  0.00  0.00     0.102 A 
ATOM     21  C15 <0> d   1      -1.093  -6.288   2.895  0.00  0.00     0.101 A 
ATOM     22  C14 <0> d   1       0.009  -5.549   2.494  0.00  0.00     0.040 A 
ATOM     23  C13 <0> d   1       0.588  -5.780   1.263  0.00  0.00     0.015 A 
BRANCH  20  24
ATOM     24  O3  <0> d   1      -2.701  -7.992   2.451  0.00  0.00    -0.353 OA
ATOM     25  C18 <0> d   1      -3.187  -8.980   1.540  0.00  0.00     0.210 C 
ENDBRANCH  20  24
BRANCH  21  26
ATOM     26  O4  <0> d   1      -1.662  -6.057   4.109  0.00  0.00    -0.353 OA
ATOM     27  C19 <0> d   1      -1.071  -5.038   4.918  0.00  0.00     0.210 C 
ENDBRANCH  21  26
ENDBRANCH   2  18
TORSDOF 7
