REMARK  3 active torsions:
REMARK  status: ('A' for Active; 'I' for Inactive)
REMARK    1  A    between atoms: N2_5  and  C6_8 
REMARK    2  A    between atoms: C6_8  and  C7_9 
REMARK    3  A    between atoms: C13_16  and  C16_20 
ROOT
ATOM      1  C7  <0> d   1      -0.631   1.724   3.640  0.00  0.00     0.041 A 
ATOM      2  C8  <0> d   1      -1.754   1.198   4.286  0.00  0.00     0.118 A 
ATOM      3  O1  <0> d   1      -2.321   0.082   3.827  0.00  0.00    -0.191 OA
ATOM      4  C9  <0> d   1      -2.290   1.842   5.418  0.00  0.00     0.041 A 
ATOM      5  C10 <0> d   1      -1.721   2.979   5.893  0.00  0.00     0.020 A 
ATOM      6  C11 <0> d   1      -0.590   3.519   5.254  0.00  0.00     0.036 A 
ATOM      7  C12 <0> d   1       0.016   4.700   5.733  0.00  0.00     0.135 A 
ATOM      8  C13 <0> d   1       1.161   5.184   5.056  0.00  0.00     0.059 A 
ATOM      9  C14 <0> d   1       1.635   4.506   3.954  0.00  0.00     0.159 A 
ATOM     10  O2  <0> d   1       1.046   3.393   3.511  0.00  0.00    -0.320 OA
ATOM     11  C15 <0> d   1      -0.041   2.877   4.120  0.00  0.00     0.099 A 
ATOM     12  O3  <0> d   1      -0.473   5.340   6.814  0.00  0.00    -0.190 OA
ENDROOT
BRANCH   8  13
ATOM     13  C16 <0> d   1       1.835   6.413   5.521  0.00  0.00     0.114 A 
ATOM     14  S1  <0> d   1       1.417   7.468   6.902  0.00  0.00    -0.067 SA
ATOM     15  C22 <0> d   1       2.732   8.644   6.691  0.00  0.00     0.035 A 
ATOM     16  C17 <0> d   1       3.405   8.142   5.552  0.00  0.00     0.075 A 
ATOM     17  C21 <0> d   1       3.133   9.783   7.344  0.00  0.00     0.021 A 
ATOM     18  N3  <0> d   1       2.893   7.014   5.020  0.00  0.00    -0.239 NA
ATOM     19  C18 <0> d   1       4.529   8.883   5.114  0.00  0.00     0.033 A 
ATOM     20  C19 <0> d   1       4.918  10.010   5.768  0.00  0.00     0.002 A 
ATOM     21  C20 <0> d   1       4.236  10.478   6.883  0.00  0.00     0.002 A 
ENDBRANCH   8  13
BRANCH   1  22
ATOM     22  C6  <0> d   1      -0.062   1.031   2.429  0.00  0.00     0.317 C 
BRANCH  22  23
ATOM     23  N2  <0> d   1      -0.701   1.560   1.216  0.00  0.00     0.096 N 
ATOM     24  C3  <0> d   1      -0.013   1.086   0.008  0.00  0.00     0.303 C 
ATOM     25  C2  <0> d   1      -0.754   1.593  -1.231  0.00  0.00     0.302 C 
ATOM     26  N1  <0> d   1      -0.806   3.062  -1.200  0.00  0.00     0.087 N 
ATOM     27  C1  <0> d   1      -1.445   3.591  -2.413  0.00  0.00     0.310 C 
ATOM     28  C5  <0> d   1      -1.495   3.536   0.008  0.00  0.00     0.302 C 
ATOM     29  C4  <0> d   1      -0.754   3.029   1.247  0.00  0.00     0.303 C 
ENDBRANCH  22  23
ENDBRANCH   1  22
TORSDOF 3
