REMARK  8 active torsions:
REMARK  status: ('A' for Active; 'I' for Inactive)
REMARK    1  A    between atoms: C2_2  and  C5_5 
REMARK    2  A    between atoms: C8_8  and  C11_11 
REMARK    3  A    between atoms: C17_18  and  O4_32 
REMARK    4  A    between atoms: C18_19  and  C20_22 
REMARK    5  A    between atoms: C20_22  and  N1_23 
REMARK    6  A    between atoms: N2_26  and  C25_29 
REMARK    7  A    between atoms: C25_29  and  C26_30 
REMARK    8  A    between atoms: C26_30  and  O3_31 
ROOT
ATOM      1  C11 <0> d   1       2.692  -1.858  -4.726  0.00  0.00     0.053 C 
ATOM      2  C12 <0> d   1       3.951  -1.435  -5.000  0.00  0.00     0.127 A 
ATOM      3  C13 <0> d   1       4.723  -1.732  -6.218  0.00  0.00     0.218 A 
ATOM      4  O1  <0> d   1       4.377  -2.399  -7.177  0.00  0.00    -0.284 OA
ATOM      5  C14 <0> d   1       6.011  -1.042  -6.016  0.00  0.00     0.051 A 
ATOM      6  C15 <0> d   1       7.166  -0.932  -6.791  0.00  0.00     0.021 A 
ATOM      7  C16 <0> d   1       8.228  -0.207  -6.330  0.00  0.00     0.038 A 
ATOM      8  C17 <0> d   1       8.160   0.422  -5.090  0.00  0.00     0.076 A 
ATOM      9  C18 <0> d   1       7.019   0.321  -4.310  0.00  0.00     0.038 A 
ATOM     10  C19 <0> d   1       5.930  -0.413  -4.763  0.00  0.00     0.101 A 
ATOM     11  O2  <0> d   1       4.724  -0.656  -4.207  0.00  0.00    -0.305 OA
ENDROOT
BRANCH   1  12
ATOM     12  C8  <0> d   1       2.002  -1.380  -3.520  0.00  0.00    -0.033 A 
ATOM     13  C7  <0> d   1       2.683  -0.591  -2.586  0.00  0.00     0.012 A 
ATOM     14  C6  <0> d   1       2.029  -0.146  -1.457  0.00  0.00     0.009 A 
ATOM     15  C5  <0> d   1       0.702  -0.478  -1.246  0.00  0.00    -0.051 A 
ATOM     16  C10 <0> d   1       0.023  -1.263  -2.162  0.00  0.00     0.009 A 
ATOM     17  C9  <0> d   1       0.661  -1.711  -3.299  0.00  0.00     0.012 A 
BRANCH  15  18
ATOM     18  C2  <0> d   1      -0.005   0.012  -0.009  0.00  0.00    -0.024 C 
ATOM     19  C1  <0> d   1      -0.487  -1.186   0.812  0.00  0.00     0.019 C 
ATOM     20  C3  <0> d   1      -1.207   0.869  -0.414  0.00  0.00     0.019 C 
ATOM     21  C4  <0> d   1       0.959   0.852   0.831  0.00  0.00     0.019 C 
ENDBRANCH  15  18
ENDBRANCH   1  12
BRANCH   9  22
ATOM     22  C20 <0> d   1       6.960   1.007  -2.969  0.00  0.00     0.317 C 
BRANCH  22  23
ATOM     23  N1  <0> d   1       6.428   2.365  -3.137  0.00  0.00     0.096 N 
ATOM     24  C24 <0> d   1       6.133   2.980  -1.835  0.00  0.00     0.303 C 
ATOM     25  C23 <0> d   1       5.508   4.360  -2.055  0.00  0.00     0.302 C 
ATOM     26  N2  <0> d   1       6.434   5.196  -2.832  0.00  0.00     0.093 N 
ATOM     27  C22 <0> d   1       6.729   4.581  -4.134  0.00  0.00     0.302 C 
ATOM     28  C21 <0> d   1       7.354   3.202  -3.913  0.00  0.00     0.303 C 
BRANCH  26  29
ATOM     29  C25 <0> d   1       5.901   6.555  -3.000  0.00  0.00     0.298 C 
BRANCH  29  30
ATOM     30  C26 <0> d   1       5.841   7.251  -1.639  0.00  0.00     0.194 C 
BRANCH  30  31
ATOM     31  O3  <0> d   1       7.166   7.424  -1.133  0.00  0.00    -0.399 OA
ATOM     32  H31 <0> d   1       7.205   7.860  -0.271  0.00  0.00     0.209 HD
ENDBRANCH  30  31
ENDBRANCH  29  30
ENDBRANCH  26  29
ENDBRANCH  22  23
ENDBRANCH   9  22
BRANCH   8  33
ATOM     33  O4  <0> d   1       9.221   1.140  -4.641  0.00  0.00    -0.360 OA
ATOM     34  H32 <0> d   1       9.201   2.073  -4.896  0.00  0.00     0.217 HD
ENDBRANCH   8  33
TORSDOF 8
