REMARK  6 active torsions:
REMARK  status: ('A' for Active; 'I' for Inactive)
REMARK    1  A    between atoms: N2_5  and  C6_8 
REMARK    2  A    between atoms: C6_8  and  C7_9 
REMARK    3  A    between atoms: C8_10  and  O5_30 
REMARK    4  A    between atoms: C14_18  and  C16_20 
REMARK    5  A    between atoms: C19_23  and  O4_28 
REMARK    6  A    between atoms: C20_24  and  O3_26 
ROOT
ATOM      1  C7  <0> d   1       2.188  -4.533   1.006  0.00  0.00     0.038 A 
ATOM      2  C8  <0> d   1       3.529  -4.739   0.724  0.00  0.00     0.076 A 
ATOM      3  C9  <0> d   1       4.397  -5.191   1.717  0.00  0.00     0.038 A 
ATOM      4  C10 <0> d   1       3.936  -5.449   2.975  0.00  0.00     0.017 A 
ATOM      5  C11 <0> d   1       2.578  -5.269   3.272  0.00  0.00    -0.000 A 
ATOM      6  C12 <0> d   1       1.706  -4.778   2.281  0.00  0.00     0.100 A 
ATOM      7  O1  <0> d   1       0.407  -4.533   2.583  0.00  0.00    -0.273 OA
ATOM      8  C13 <0> d   1      -0.129  -5.258   3.592  0.00  0.00     0.299 C 
ATOM      9  O2  <0> d   1      -1.276  -5.662   3.535  0.00  0.00    -0.259 OA
ATOM     10  C14 <0> d   1       0.720  -5.542   4.761  0.00  0.00     0.051 C 
ATOM     11  C15 <0> d   1       2.078  -5.565   4.567  0.00  0.00     0.032 C 
ENDROOT
BRANCH  10  12
ATOM     12  C16 <0> d   1       0.129  -5.803   6.094  0.00  0.00    -0.017 A 
ATOM     13  C21 <0> d   1      -0.574  -4.797   6.756  0.00  0.00     0.052 A 
ATOM     14  C20 <0> d   1      -1.129  -5.048   7.998  0.00  0.00     0.102 A 
ATOM     15  C19 <0> d   1      -0.975  -6.299   8.590  0.00  0.00     0.101 A 
ATOM     16  C18 <0> d   1      -0.271  -7.297   7.933  0.00  0.00     0.040 A 
ATOM     17  C17 <0> d   1       0.280  -7.054   6.692  0.00  0.00     0.015 A 
BRANCH  14  18
ATOM     18  O3  <0> d   1      -1.819  -4.070   8.644  0.00  0.00    -0.353 OA
ATOM     19  C22 <0> d   1      -1.938  -2.811   7.978  0.00  0.00     0.210 C 
ENDBRANCH  14  18
BRANCH  15  20
ATOM     20  O4  <0> d   1      -1.516  -6.543   9.813  0.00  0.00    -0.353 OA
ATOM     21  C23 <0> d   1      -1.321  -7.848  10.361  0.00  0.00     0.210 C 
ENDBRANCH  15  20
ENDBRANCH  10  12
BRANCH   1  22
ATOM     22  C6  <0> d   1       1.257  -4.037  -0.071  0.00  0.00     0.317 C 
BRANCH  22  23
ATOM     23  N2  <0> d   1       1.237  -2.568  -0.063  0.00  0.00     0.096 N 
ATOM     24  C3  <0> d   1       0.533  -2.045  -1.242  0.00  0.00     0.303 C 
ATOM     25  C2  <0> d   1       0.603  -0.516  -1.238  0.00  0.00     0.302 C 
ATOM     26  N1  <0> d   1       0.002  -0.004   0.002  0.00  0.00     0.087 N 
ATOM     27  C1  <0> d   1      -0.018   1.465   0.010  0.00  0.00     0.310 C 
ATOM     28  C5  <0> d   1       0.706  -0.528   1.181  0.00  0.00     0.302 C 
ATOM     29  C4  <0> d   1       0.636  -2.057   1.176  0.00  0.00     0.303 C 
ENDBRANCH  22  23
ENDBRANCH   1  22
BRANCH   2  30
ATOM     30  O5  <0> d   1       4.000  -4.500  -0.526  0.00  0.00    -0.360 OA
ATOM     31  H26 <0> d   1       4.313  -3.595  -0.662  0.00  0.00     0.217 HD
ENDBRANCH   2  30
TORSDOF 6
