REMARK  4 active torsions:
REMARK  status: ('A' for Active; 'I' for Inactive)
REMARK    1  A    between atoms: C9_10  and  C10_11 
REMARK    2  A    between atoms: C13_14  and  O2_17 
REMARK    3  A    between atoms: N1_22  and  C20_25 
REMARK    4  A    between atoms: C20_25  and  C21_26 
ROOT
ATOM      1  C1  <0> d   1       1.726   7.492  -2.758  0.00  0.00     0.054 C 
ATOM      2  C2  <0> d   1       1.363   8.738  -1.991  0.00  0.00     0.007 A 
ATOM      3  C3  <0> d   1       1.758   9.982  -2.465  0.00  0.00     0.087 A 
ATOM      4  C4  <0> d   1       1.429  11.138  -1.765  0.00  0.00     0.005 A 
ATOM      5  C5  <0> d   1       0.714  11.055  -0.601  0.00  0.00     0.030 A 
ATOM      6  C6  <0> d   1       0.312   9.812  -0.115  0.00  0.00     0.052 A 
ATOM      7  C7  <0> d   1       0.637   8.637  -0.812  0.00  0.00     0.099 A 
ATOM      8  O1  <0> d   1       0.145   7.566  -0.154  0.00  0.00    -0.305 OA
ATOM      9  C8  <0> d   1      -0.511   7.926   0.975  0.00  0.00     0.127 A 
ATOM     10  C9  <0> d   1      -1.117   7.087   1.853  0.00  0.00     0.053 C 
ATOM     11  C17 <0> d   1      -0.454   9.392   1.073  0.00  0.00     0.218 A 
ATOM     12  O3  <0> d   1      -0.930  10.100   1.943  0.00  0.00    -0.284 OA
ATOM     13  C18 <0> d   1       1.850  12.493  -2.274  0.00  0.00     0.317 C 
ATOM     14  N1  <0> d   1       2.924  12.335  -3.265  0.00  0.00     0.120 N 
ATOM     15  C19 <0> d   1       2.547  11.323  -4.265  0.00  0.00     0.448 C 
ATOM     16  O4  <0> d   1       2.471  10.050  -3.620  0.00  0.00    -0.320 OA
ENDROOT
BRANCH  10  17
ATOM     17  C10 <0> d   1      -0.999   5.634   1.680  0.00  0.00    -0.033 A 
ATOM     18  C15 <0> d   1      -1.513   4.766   2.653  0.00  0.00     0.014 A 
ATOM     19  C14 <0> d   1      -1.404   3.405   2.483  0.00  0.00     0.037 A 
ATOM     20  C13 <0> d   1      -0.776   2.890   1.354  0.00  0.00     0.068 A 
ATOM     21  C12 <0> d   1      -0.265   3.747   0.385  0.00  0.00     0.037 A 
ATOM     22  C11 <0> d   1      -0.372   5.110   0.542  0.00  0.00     0.014 A 
BRANCH  20  23
ATOM     23  O2  <0> d   1      -0.668   1.547   1.194  0.00  0.00    -0.356 OA
ATOM     24  C16 <0> d   1      -1.214   0.724   2.226  0.00  0.00     0.210 C 
ENDBRANCH  20  23
ENDBRANCH  10  17
BRANCH  14  25
ATOM     25  C20 <0> d   1       3.241  13.618  -3.907  0.00  0.00     0.314 C 
BRANCH  25  26
ATOM     26  C21 <0> d   1       4.482  13.465  -4.748  0.00  0.00    -0.027 A 
ATOM     27  C25 <0> d   1       4.394  13.091  -6.080  0.00  0.00     0.028 A 
ATOM     28  C24 <0> d   1       5.554  12.961  -6.821  0.00  0.00     0.116 A 
ATOM     29  N2  <0> d   1       6.732  13.190  -6.275  0.00  0.00    -0.273 NA
ATOM     30  C23 <0> d   1       6.853  13.548  -5.011  0.00  0.00     0.116 A 
ATOM     31  C22 <0> d   1       5.737  13.702  -4.210  0.00  0.00     0.028 A 
ENDBRANCH  25  26
ENDBRANCH  14  25
TORSDOF 4
