REMARK  6 active torsions:
REMARK  status: ('A' for Active; 'I' for Inactive)
REMARK    1  A    between atoms: C4_4  and  O3_33 
REMARK    2  A    between atoms: C6_6  and  C11_13 
REMARK    3  A    between atoms: C11_13  and  N1_14 
REMARK    4  A    between atoms: N2_17  and  C16_20 
REMARK    5  A    between atoms: C16_20  and  C17_21 
REMARK    6  A    between atoms: C16_20  and  C23_27 
ROOT
ATOM      1  N1  <0> d   1      -0.701   1.560   1.216  0.00  0.00     0.096 N 
ATOM      2  C12 <0> d   1      -0.013   1.086   0.008  0.00  0.00     0.303 C 
ATOM      3  C13 <0> d   1      -0.754   1.593  -1.231  0.00  0.00     0.304 C 
ATOM      4  N2  <0> d   1      -0.806   3.062  -1.200  0.00  0.00     0.105 N 
ATOM      5  C14 <0> d   1      -1.495   3.536   0.008  0.00  0.00     0.304 C 
ATOM      6  C15 <0> d   1      -0.754   3.029   1.247  0.00  0.00     0.303 C 
ENDROOT
BRANCH   1   7
ATOM      7  C11 <0> d   1      -0.062   1.031   2.429  0.00  0.00     0.312 C 
BRANCH   7   8
ATOM      8  C6  <0> d   1      -0.631   1.724   3.640  0.00  0.00    -0.009 A 
ATOM      9  C5  <0> d   1      -1.922   1.321   4.199  0.00  0.00     0.039 A 
ATOM     10  C4  <0> d   1      -2.667   0.279   3.624  0.00  0.00     0.079 A 
ATOM     11  C9  <0> d   1      -2.416   1.995   5.330  0.00  0.00     0.093 A 
ATOM     12  C3  <0> d   1      -3.883  -0.075   4.180  0.00  0.00     0.044 A 
ATOM     13  C2  <0> d   1      -4.363   0.594   5.295  0.00  0.00    -0.057 A 
ATOM     14  C1  <0> d   1      -5.690   0.196   5.888  0.00  0.00     0.048 C 
ATOM     15  C10 <0> d   1      -3.640   1.620   5.868  0.00  0.00     0.045 A 
ATOM     16  O2  <0> d   1      -1.698   2.996   5.882  0.00  0.00    -0.275 OA
ATOM     17  C8  <0> d   1      -0.513   3.371   5.375  0.00  0.00     0.288 A 
ATOM     18  C7  <0> d   1       0.043   2.736   4.246  0.00  0.00     0.092 A 
ATOM     19  O1  <0> d   1       0.100   4.279   5.907  0.00  0.00    -0.260 OA
BRANCH  10  20
ATOM     20  O3  <0> d   1      -2.197  -0.376   2.533  0.00  0.00    -0.360 OA
ATOM     21  H28 <0> d   1      -1.229  -0.091   2.095  0.00  0.00     0.217 HD
ENDBRANCH  10  20
ENDBRANCH   7   8
ENDBRANCH   1   7
BRANCH   4  22
ATOM     22  C16 <0> d   1      -1.445   3.591  -2.413  0.00  0.00     0.289 C 
BRANCH  22  23
ATOM     23  C17 <0> d   1      -1.480   5.096  -2.345  0.00  0.00    -0.021 A 
ATOM     24  C22 <0> d   1      -2.598   5.782  -2.785  0.00  0.00     0.010 A 
ATOM     25  C21 <0> d   1      -2.630   7.162  -2.722  0.00  0.00     0.001 A 
ATOM     26  C20 <0> d   1      -1.545   7.857  -2.221  0.00  0.00     0.000 A 
ATOM     27  C19 <0> d   1      -0.428   7.172  -1.782  0.00  0.00     0.001 A 
ATOM     28  C18 <0> d   1      -0.398   5.791  -1.839  0.00  0.00     0.010 A 
ENDBRANCH  22  23
BRANCH  22  29
ATOM     29  C23 <0> d   1      -0.658   3.161  -3.624  0.00  0.00    -0.021 A 
ATOM     30  C28 <0> d   1      -1.317   2.770  -4.774  0.00  0.00     0.010 A 
ATOM     31  C27 <0> d   1      -0.595   2.376  -5.885  0.00  0.00     0.001 A 
ATOM     32  C26 <0> d   1       0.786   2.372  -5.846  0.00  0.00     0.000 A 
ATOM     33  C25 <0> d   1       1.446   2.764  -4.696  0.00  0.00     0.001 A 
ATOM     34  C24 <0> d   1       0.724   3.163  -3.587  0.00  0.00     0.010 A 
ENDBRANCH  22  29
ENDBRANCH   4  22
TORSDOF 6
