REMARK  5 active torsions:
REMARK  status: ('A' for Active; 'I' for Inactive)
REMARK    1  A    between atoms: N2_5  and  C6_8 
REMARK    2  A    between atoms: C6_8  and  C7_9 
REMARK    3  A    between atoms: C8_10  and  O5_29 
REMARK    4  A    between atoms: C14_17  and  C15_18 
REMARK    5  A    between atoms: C18_21  and  N3_24 
ROOT
ATOM      1  C7  <0> d   1       2.320  -4.043   1.197  0.00  0.00     0.038 A 
ATOM      2  C8  <0> d   1       3.642  -4.322   0.885  0.00  0.00     0.076 A 
ATOM      3  C9  <0> d   1       4.436  -5.055   1.762  0.00  0.00     0.038 A 
ATOM      4  C10 <0> d   1       3.918  -5.507   2.943  0.00  0.00     0.021 A 
ATOM      5  C11 <0> d   1       2.590  -5.233   3.269  0.00  0.00     0.051 A 
ATOM      6  C12 <0> d   1       1.780  -4.490   2.396  0.00  0.00     0.101 A 
ATOM      7  O1  <0> d   1       0.546  -4.349   2.926  0.00  0.00    -0.305 OA
ATOM      8  C13 <0> d   1       0.446  -4.950   4.135  0.00  0.00     0.127 A 
ATOM      9  C14 <0> d   1      -0.658  -4.988   4.922  0.00  0.00     0.053 C 
ATOM     10  C21 <0> d   1       1.748  -5.568   4.433  0.00  0.00     0.218 A 
ATOM     11  O4  <0> d   1       2.064  -6.201   5.425  0.00  0.00    -0.284 OA
ENDROOT
BRANCH   9  12
ATOM     12  C15 <0> d   1      -1.935  -4.458   4.424  0.00  0.00    -0.033 A 
ATOM     13  C20 <0> d   1      -3.033  -4.343   5.284  0.00  0.00     0.014 A 
ATOM     14  C19 <0> d   1      -4.225  -3.839   4.810  0.00  0.00     0.037 A 
ATOM     15  C18 <0> d   1      -4.341  -3.457   3.484  0.00  0.00     0.102 A 
ATOM     16  C17 <0> d   1      -3.262  -3.573   2.626  0.00  0.00     0.037 A 
ATOM     17  C16 <0> d   1      -2.061  -4.070   3.085  0.00  0.00     0.014 A 
BRANCH  15  18
ATOM     18  N3  <0> d   1      -5.627  -2.922   2.983  0.00  0.00    -0.116 N 
ATOM     19  O2  <0> d   1      -5.732  -2.587   1.826  0.00  0.00    -0.532 OA
ATOM     20  O3  <0> d   1      -6.572  -2.820   3.730  0.00  0.00    -0.532 OA
ENDBRANCH  15  18
ENDBRANCH   9  12
BRANCH   1  21
ATOM     21  C6  <0> d   1       1.472  -3.248   0.238  0.00  0.00     0.317 C 
BRANCH  21  22
ATOM     22  N2  <0> d   1       1.595  -1.817   0.544  0.00  0.00     0.096 N 
ATOM     23  C3  <0> d   1       0.977  -0.998  -0.508  0.00  0.00     0.303 C 
ATOM     24  C2  <0> d   1       1.196   0.484  -0.192  0.00  0.00     0.302 C 
ATOM     25  N1  <0> d   1       0.616   0.793   1.122  0.00  0.00     0.087 N 
ATOM     26  C1  <0> d   1       0.740   2.224   1.429  0.00  0.00     0.310 C 
ATOM     27  C5  <0> d   1       1.234  -0.026   2.174  0.00  0.00     0.302 C 
ATOM     28  C4  <0> d   1       1.015  -1.508   1.858  0.00  0.00     0.303 C 
ENDBRANCH  21  22
ENDBRANCH   1  21
BRANCH   2  29
ATOM     29  O5  <0> d   1       4.165  -3.877  -0.285  0.00  0.00    -0.360 OA
ATOM     30  H21 <0> d   1       4.569  -2.999  -0.228  0.00  0.00     0.217 HD
ENDBRANCH   2  29
TORSDOF 5
