REMARK  3 active torsions:
REMARK  status: ('A' for Active; 'I' for Inactive)
REMARK    1  A    between atoms: C2_2  and  C3_3 
REMARK    2  A    between atoms: C9_9  and  C12_14 
REMARK    3  A    between atoms: C12_14  and  N1_15 
ROOT
ATOM      1  C3  <0> d   1      -3.604  -0.544   2.337  0.00  0.00    -0.058 A 
ATOM      2  C4  <0> d   1      -3.543  -1.016   3.640  0.00  0.00     0.010 A 
ATOM      3  C5  <0> d   1      -2.331  -1.323   4.222  0.00  0.00     0.039 A 
ATOM      4  C6  <0> d   1      -1.157  -1.161   3.497  0.00  0.00     0.090 A 
ATOM      5  C7  <0> d   1      -1.222  -0.683   2.177  0.00  0.00     0.006 A 
ATOM      6  C8  <0> d   1      -2.461  -0.376   1.606  0.00  0.00     0.022 A 
ATOM      7  C9  <0> d   1       0.022  -0.514   1.420  0.00  0.00    -0.021 A 
ATOM      8  C10 <0> d   1       1.191  -0.835   2.029  0.00  0.00     0.092 A 
ATOM      9  C11 <0> d   1       1.183  -1.306   3.360  0.00  0.00     0.288 A 
ATOM     10  O1  <0> d   1       2.239  -1.586   3.897  0.00  0.00    -0.260 OA
ATOM     11  O2  <0> d   1       0.040  -1.458   4.047  0.00  0.00    -0.275 OA
ENDROOT
BRANCH   7  12
ATOM     12  C12 <0> d   1       0.002  -0.004   0.002  0.00  0.00     0.168 C 
BRANCH  12  13
ATOM     13  N1  <0> d   1      -0.018   1.461   0.010  0.00  0.00    -0.347 N 
ATOM     14  C15 <0> d   1       1.058   2.277   0.004  0.00  0.00     0.182 A 
ATOM     15  N2  <0> d   1       0.644   3.513   0.015  0.00  0.00    -0.361 N 
ATOM     16  C14 <0> d   1      -0.696   3.533   0.028  0.00  0.00     0.106 A 
ATOM     17  H15 <0> d   1       1.250   4.343   0.013  0.00  0.00     0.166 HD
ATOM     18  C13 <0> d   1      -1.131   2.258   0.019  0.00  0.00     0.109 A 
ENDBRANCH  12  13
ENDBRANCH   7  12
BRANCH   1  19
ATOM     19  C2  <0> d   1      -4.940  -0.215   1.722  0.00  0.00     0.034 C 
ATOM     20  C1  <0> d   1      -5.503  -1.457   1.029  0.00  0.00     0.010 C 
ENDBRANCH   1  19
TORSDOF 3
