REMARK  6 active torsions:
REMARK  status: ('A' for Active; 'I' for Inactive)
REMARK    1  A    between atoms: C2_2  and  N1_3 
REMARK    2  A    between atoms: C4_5  and  C12_14 
REMARK    3  A    between atoms: C9_10  and  O1_12 
REMARK    4  A    between atoms: C18_21  and  O4_33 
REMARK    5  A    between atoms: C19_22  and  C21_25 
REMARK    6  A    between atoms: C21_25  and  N2_26 
ROOT
ATOM      1  C12 <0> d   1       5.957  -3.131   1.704  0.00  0.00     0.055 C 
ATOM      2  C13 <0> d   1       4.853  -3.154   0.905  0.00  0.00     0.128 A 
ATOM      3  C14 <0> d   1       4.802  -3.644  -0.427  0.00  0.00     0.218 A 
ATOM      4  O2  <0> d   1       5.719  -4.119  -1.077  0.00  0.00    -0.284 OA
ATOM      5  C15 <0> d   1       3.406  -3.454  -0.855  0.00  0.00     0.051 A 
ATOM      6  C16 <0> d   1       2.718  -3.727  -2.037  0.00  0.00     0.021 A 
ATOM      7  C17 <0> d   1       1.388  -3.428  -2.135  0.00  0.00     0.038 A 
ATOM      8  C18 <0> d   1       0.717  -2.858  -1.057  0.00  0.00     0.076 A 
ATOM      9  C19 <0> d   1       1.388  -2.577   0.122  0.00  0.00     0.036 A 
ATOM     10  C20 <0> d   1       2.739  -2.874   0.237  0.00  0.00     0.101 A 
ATOM     11  O3  <0> d   1       3.619  -2.714   1.248  0.00  0.00    -0.305 OA
ENDROOT
BRANCH   1  12
ATOM     12  C4  <0> d   1       5.867  -2.596   3.061  0.00  0.00    -0.005 A 
ATOM     13  C3  <0> d   1       4.745  -2.076   3.671  0.00  0.00     0.103 A 
ATOM     14  N1  <0> d   1       5.057  -1.685   4.931  0.00  0.00    -0.356 N 
ATOM     15  C6  <0> d   1       6.392  -1.922   5.196  0.00  0.00     0.045 A 
ATOM     16  C5  <0> d   1       6.959  -2.499   4.048  0.00  0.00     0.005 A 
ATOM     17  C7  <0> d   1       7.189  -1.701   6.314  0.00  0.00     0.033 A 
ATOM     18  C10 <0> d   1       8.307  -2.845   4.032  0.00  0.00     0.051 A 
ATOM     19  C9  <0> d   1       9.085  -2.618   5.153  0.00  0.00     0.069 A 
ATOM     20  C8  <0> d   1       8.523  -2.047   6.290  0.00  0.00     0.039 A 
BRANCH  14  21
ATOM     21  C2  <0> d   1       4.111  -1.088   5.878  0.00  0.00     0.124 C 
ATOM     22  C1  <0> d   1       4.204   0.438   5.798  0.00  0.00     0.027 C 
ENDBRANCH  14  21
BRANCH  19  23
ATOM     23  O1  <0> d   1      10.402  -2.955   5.143  0.00  0.00    -0.356 OA
ATOM     24  C11 <0> d   1      11.147  -2.693   6.334  0.00  0.00     0.210 C 
ENDBRANCH  19  23
ENDBRANCH   1  12
BRANCH   9  25
ATOM     25  C21 <0> d   1       0.651  -1.955   1.280  0.00  0.00     0.279 C 
BRANCH  25  26
ATOM     26  N2  <0> d   1       0.729  -0.491   1.181  0.00  0.00    -0.067 N 
ATOM     27  C26 <0> d   1       2.126  -0.039   1.168  0.00  0.00     0.239 C 
ATOM     28  C25 <0> d   1       2.169   1.490   1.211  0.00  0.00     0.007 C 
ATOM     29  C24 <0> d   1       1.420   2.051  -0.001  0.00  0.00     0.007 C 
ATOM     30  C27 <0> d   1       3.624   1.962   1.176  0.00  0.00     0.011 C 
ATOM     31  C23 <0> d   1      -0.019   1.526   0.010  0.00  0.00     0.028 C 
ATOM     32  C22 <0> d   1       0.002  -0.004   0.002  0.00  0.00     0.235 C 
ATOM     33  H30 <0> d   1       0.247  -0.064   2.073  0.00  0.00     0.280 HD
ENDBRANCH  25  26
ENDBRANCH   9  25
BRANCH   8  34
ATOM     34  O4  <0> d   1      -0.606  -2.571  -1.163  0.00  0.00    -0.360 OA
ATOM     35  H31 <0> d   1      -1.141  -2.120  -0.314  0.00  0.00     0.217 HD
ENDBRANCH   8  34
TORSDOF 6
