REMARK  6 active torsions:
REMARK  status: ('A' for Active; 'I' for Inactive)
REMARK    1  A    between atoms: C3_3  and  O3_33 
REMARK    2  A    between atoms: C10_12  and  C11_13 
REMARK    3  A    between atoms: C11_13  and  N1_14 
REMARK    4  A    between atoms: N2_17  and  C16_20 
REMARK    5  A    between atoms: C16_20  and  C17_21 
REMARK    6  A    between atoms: C16_20  and  C23_27 
ROOT
ATOM      1  N1  <0> d   1      -0.701   1.560   1.216  0.00  0.00     0.096 N 
ATOM      2  C12 <0> d   1      -0.013   1.086   0.008  0.00  0.00     0.300 C 
ATOM      3  C13 <0> d   1      -0.754   1.593  -1.231  0.00  0.00     0.266 C 
ATOM      4  N2  <0> d   1      -0.806   3.062  -1.200  0.00  0.00    -0.055 N 
ATOM      5  C14 <0> d   1      -1.495   3.536   0.008  0.00  0.00     0.266 C 
ATOM      6  C15 <0> d   1      -0.754   3.029   1.247  0.00  0.00     0.300 C 
ATOM      7  H29 <0> d   1       0.227   3.438  -1.172  0.00  0.00     0.281 HD
ENDROOT
BRANCH   1   8
ATOM      8  C11 <0> d   1      -0.062   1.031   2.429  0.00  0.00     0.312 C 
BRANCH   8   9
ATOM      9  C10 <0> d   1      -0.631   1.724   3.640  0.00  0.00    -0.011 A 
ATOM     10  C6  <0> d   1      -1.923   1.321   4.199  0.00  0.00     0.007 A 
ATOM     11  C5  <0> d   1      -2.664   0.282   3.626  0.00  0.00     0.017 A 
ATOM     12  C7  <0> d   1      -2.416   1.996   5.332  0.00  0.00     0.099 A 
ATOM     13  C4  <0> d   1      -3.866  -0.073   4.168  0.00  0.00     0.038 A 
ATOM     14  C3  <0> d   1      -4.359   0.592   5.288  0.00  0.00     0.074 A 
ATOM     15  C2  <0> d   1      -3.638   1.622   5.869  0.00  0.00     0.006 A 
ATOM     16  C1  <0> d   1      -4.181   2.334   7.082  0.00  0.00     0.054 C 
ATOM     17  O1  <0> d   1      -1.697   2.998   5.883  0.00  0.00    -0.274 OA
ATOM     18  C8  <0> d   1      -0.512   3.371   5.375  0.00  0.00     0.288 A 
ATOM     19  O2  <0> d   1       0.101   4.280   5.906  0.00  0.00    -0.260 OA
ATOM     20  C9  <0> d   1       0.043   2.735   4.246  0.00  0.00     0.092 A 
BRANCH  14  21
ATOM     21  O3  <0> d   1      -5.556   0.227   5.815  0.00  0.00    -0.360 OA
ATOM     22  H28 <0> d   1      -6.132  -0.591   5.357  0.00  0.00     0.217 HD
ENDBRANCH  14  21
ENDBRANCH   8   9
ENDBRANCH   1   8
BRANCH   4  23
ATOM     23  C16 <0> d   1      -1.445   3.591  -2.413  0.00  0.00     0.254 C 
BRANCH  23  24
ATOM     24  C17 <0> d   1      -1.480   5.096  -2.345  0.00  0.00    -0.023 A 
ATOM     25  C22 <0> d   1      -2.598   5.782  -2.785  0.00  0.00     0.009 A 
ATOM     26  C21 <0> d   1      -2.630   7.162  -2.722  0.00  0.00     0.001 A 
ATOM     27  C20 <0> d   1      -1.545   7.857  -2.221  0.00  0.00     0.000 A 
ATOM     28  C19 <0> d   1      -0.428   7.172  -1.782  0.00  0.00     0.001 A 
ATOM     29  C18 <0> d   1      -0.398   5.791  -1.839  0.00  0.00     0.009 A 
ENDBRANCH  23  24
BRANCH  23  30
ATOM     30  C23 <0> d   1      -0.658   3.161  -3.624  0.00  0.00    -0.023 A 
ATOM     31  C28 <0> d   1      -1.317   2.770  -4.774  0.00  0.00     0.009 A 
ATOM     32  C27 <0> d   1      -0.595   2.376  -5.885  0.00  0.00     0.001 A 
ATOM     33  C26 <0> d   1       0.786   2.372  -5.846  0.00  0.00     0.000 A 
ATOM     34  C25 <0> d   1       1.446   2.764  -4.696  0.00  0.00     0.001 A 
ATOM     35  C24 <0> d   1       0.724   3.163  -3.587  0.00  0.00     0.009 A 
ENDBRANCH  23  30
ENDBRANCH   4  23
TORSDOF 6
