REMARK  4 active torsions:
REMARK  status: ('A' for Active; 'I' for Inactive)
REMARK    1  A    between atoms: C3_3  and  C6_7 
REMARK    2  A    between atoms: N2_12  and  C11_13 
REMARK    3  A    between atoms: C11_13  and  C12_14 
REMARK    4  A    between atoms: C19_22  and  C21_25 
ROOT
ATOM      1  C12 <0> d   1      -0.179   0.706   1.398  0.00  0.00     0.039 A 
ATOM      2  C13 <0> d   1       0.127   1.806   2.182  0.00  0.00     0.118 A 
ATOM      3  C14 <0> d   1      -0.316   1.884   3.500  0.00  0.00     0.041 A 
ATOM      4  C15 <0> d   1      -1.052   0.867   4.041  0.00  0.00     0.021 A 
ATOM      5  C16 <0> d   1      -1.363  -0.250   3.266  0.00  0.00     0.050 A 
ATOM      6  C17 <0> d   1      -0.925  -0.336   1.932  0.00  0.00     0.100 A 
ATOM      7  O1  <0> d   1      -1.228  -1.416   1.185  0.00  0.00    -0.320 OA
ATOM      8  C18 <0> d   1      -1.941  -2.448   1.643  0.00  0.00     0.159 A 
ATOM      9  C19 <0> d   1      -2.426  -2.496   2.911  0.00  0.00     0.048 A 
ATOM     10  C20 <0> d   1      -2.155  -1.366   3.816  0.00  0.00     0.197 A 
ATOM     11  O2  <0> d   1      -2.565  -1.353   4.963  0.00  0.00    -0.286 OA
ATOM     12  O3  <0> d   1       0.862   2.821   1.658  0.00  0.00    -0.191 OA
ENDROOT
BRANCH   1  13
ATOM     13  C11 <0> d   1       0.302   0.637  -0.029  0.00  0.00     0.280 C 
BRANCH  13  14
ATOM     14  N2  <0> d   1      -0.634   1.365  -0.896  0.00  0.00    -0.059 N 
ATOM     15  C6  <0> d   1      -0.141   1.413  -2.279  0.00  0.00     0.223 C 
ATOM     16  C7  <0> d   1      -1.063   2.298  -3.120  0.00  0.00     0.038 C 
ATOM     17  C8  <0> d   1      -2.483   1.727  -3.085  0.00  0.00     0.004 C 
ATOM     18  C9  <0> d   1      -2.954   1.642  -1.630  0.00  0.00     0.028 C 
ATOM     19  C10 <0> d   1      -1.978   0.776  -0.832  0.00  0.00     0.236 C 
ATOM     20  H23 <0> d   1      -0.703   2.399  -0.529  0.00  0.00     0.281 HD
BRANCH  15  21
ATOM     21  C3  <0> d   1       1.254   1.983  -2.294  0.00  0.00    -0.010 A 
ATOM     22  C2  <0> d   1       2.259   1.360  -3.019  0.00  0.00     0.012 A 
ATOM     23  C1  <0> d   1       3.527   1.920  -3.005  0.00  0.00     0.020 A 
ATOM     24  C5  <0> d   1       3.746   3.072  -2.274  0.00  0.00     0.116 A 
ATOM     25  N1  <0> d   1       2.767   3.638  -1.596  0.00  0.00    -0.273 NA
ATOM     26  C4  <0> d   1       1.547   3.136  -1.591  0.00  0.00     0.125 A 
ENDBRANCH  15  21
ENDBRANCH  13  14
ENDBRANCH   1  13
BRANCH   9  27
ATOM     27  C21 <0> d   1      -3.215  -3.663   3.375  0.00  0.00    -0.020 A 
ATOM     28  C26 <0> d   1      -4.286  -4.130   2.615  0.00  0.00     0.014 A 
ATOM     29  C25 <0> d   1      -5.016  -5.217   3.051  0.00  0.00     0.024 A 
ATOM     30  C24 <0> d   1      -4.687  -5.842   4.241  0.00  0.00     0.034 A 
ATOM     31  C23 <0> d   1      -3.624  -5.382   5.000  0.00  0.00     0.024 A 
ATOM     32 Cl1  <0> d   1      -5.610  -7.209   4.784  0.00  0.00    -0.084 Cl
ATOM     33  C22 <0> d   1      -2.884  -4.300   4.570  0.00  0.00     0.014 A 
ENDBRANCH   9  27
TORSDOF 4
