REMARK  7 active torsions:
REMARK  status: ('A' for Active; 'I' for Inactive)
REMARK    1  A    between atoms: N2_5  and  C6_8 
REMARK    2  A    between atoms: C6_8  and  C7_9 
REMARK    3  A    between atoms: C7_9  and  O1_10 
REMARK    4  A    between atoms: O1_10  and  C8_11 
REMARK    5  A    between atoms: C13_16  and  C17_22 
REMARK    6  A    between atoms: C20_25  and  O5_30 
REMARK    7  A    between atoms: C21_26  and  O4_28 
ROOT
ATOM      1  C8  <0> d   1       2.642  -4.662   3.283  0.00  0.00     0.071 A 
ATOM      2  C9  <0> d   1       3.861  -5.279   3.005  0.00  0.00     0.038 A 
ATOM      3  C10 <0> d   1       4.679  -5.683   4.019  0.00  0.00     0.017 A 
ATOM      4  C11 <0> d   1       4.290  -5.488   5.352  0.00  0.00    -0.001 A 
ATOM      5  C12 <0> d   1       5.115  -5.934   6.417  0.00  0.00     0.032 C 
ATOM      6  C13 <0> d   1       4.606  -5.901   7.691  0.00  0.00     0.051 C 
ATOM      7  C14 <0> d   1       3.220  -5.434   7.859  0.00  0.00     0.299 C 
ATOM      8  O2  <0> d   1       2.547  -5.788   8.810  0.00  0.00    -0.259 OA
ATOM      9  O3  <0> d   1       2.718  -4.597   6.921  0.00  0.00    -0.274 OA
ATOM     10  C15 <0> d   1       3.072  -4.840   5.635  0.00  0.00     0.092 A 
ATOM     11  C16 <0> d   1       2.252  -4.436   4.593  0.00  0.00     0.075 A 
ENDROOT
BRANCH   1  12
ATOM     12  O1  <0> d   1       1.834  -4.277   2.263  0.00  0.00    -0.349 OA
BRANCH  12  13
ATOM     13  C7  <0> d   1       2.294  -4.539   0.936  0.00  0.00     0.206 C 
BRANCH  13  14
ATOM     14  C6  <0> d   1       1.257  -4.037  -0.071  0.00  0.00     0.299 C 
BRANCH  14  15
ATOM     15  N2  <0> d   1       1.147  -2.576   0.026  0.00  0.00     0.093 N 
ATOM     16  C3  <0> d   1       2.296  -1.917  -0.611  0.00  0.00     0.302 C 
ATOM     17  C2  <0> d   1       2.183  -0.403  -0.419  0.00  0.00     0.302 C 
ATOM     18  N1  <0> d   1       0.920   0.070  -1.001  0.00  0.00     0.087 N 
ATOM     19  C1  <0> d   1       0.809   1.532  -0.904  0.00  0.00     0.310 C 
ATOM     20  C5  <0> d   1      -0.229  -0.589  -0.364  0.00  0.00     0.302 C 
ATOM     21  C4  <0> d   1      -0.117  -2.103  -0.556  0.00  0.00     0.302 C 
ENDBRANCH  14  15
ENDBRANCH  13  14
ENDBRANCH  12  13
ENDBRANCH   1  12
BRANCH   6  22
ATOM     22  C17 <0> d   1       5.421  -6.320   8.855  0.00  0.00    -0.017 A 
ATOM     23  C22 <0> d   1       5.774  -5.390   9.832  0.00  0.00     0.052 A 
ATOM     24  C21 <0> d   1       6.530  -5.787  10.920  0.00  0.00     0.102 A 
ATOM     25  C20 <0> d   1       6.947  -7.111  11.032  0.00  0.00     0.101 A 
ATOM     26  C19 <0> d   1       6.600  -8.035  10.057  0.00  0.00     0.040 A 
ATOM     27  C18 <0> d   1       5.841  -7.645   8.973  0.00  0.00     0.015 A 
BRANCH  24  28
ATOM     28  O4  <0> d   1       6.872  -4.884  11.878  0.00  0.00    -0.353 OA
ATOM     29  C23 <0> d   1       6.410  -3.543  11.698  0.00  0.00     0.210 C 
ENDBRANCH  24  28
BRANCH  25  30
ATOM     30  O5  <0> d   1       7.694  -7.500  12.100  0.00  0.00    -0.353 OA
ATOM     31  C24 <0> d   1       8.086  -8.873  12.152  0.00  0.00     0.210 C 
ENDBRANCH  25  30
ENDBRANCH   6  22
TORSDOF 7
