REMARK  6 active torsions:
REMARK  status: ('A' for Active; 'I' for Inactive)
REMARK    1  A    between atoms: C4_4  and  C7_7 
REMARK    2  A    between atoms: C12_12  and  O1_13 
REMARK    3  A    between atoms: C13_14  and  C16_19 
REMARK    4  A    between atoms: C16_19  and  N1_20 
REMARK    5  A    between atoms: N2_23  and  C21_26 
REMARK    6  A    between atoms: C21_26  and  C22_27 
ROOT
ATOM      1  C7  <0> d   1       9.020  -7.973   0.891  0.00  0.00     0.010 A 
ATOM      2  C8  <0> d   1       8.520  -8.057  -0.403  0.00  0.00     0.053 A 
ATOM      3  C9  <0> d   1       8.400  -6.912  -1.175  0.00  0.00     0.091 A 
ATOM      4  C10 <0> d   1       8.787  -5.669  -0.640  0.00  0.00     0.009 A 
ATOM      5  C11 <0> d   1       9.289  -5.589   0.663  0.00  0.00     0.052 A 
ATOM      6  C12 <0> d   1       9.405  -6.733   1.423  0.00  0.00     0.077 A 
ATOM      7  C13 <0> d   1       8.654  -4.468  -1.469  0.00  0.00    -0.011 A 
ATOM      8  C14 <0> d   1       8.155  -4.606  -2.724  0.00  0.00     0.092 A 
ATOM      9  C15 <0> d   1       7.790  -5.884  -3.198  0.00  0.00     0.288 A 
ATOM     10  O2  <0> d   1       7.348  -5.995  -4.327  0.00  0.00    -0.260 OA
ATOM     11  O3  <0> d   1       7.915  -6.980  -2.434  0.00  0.00    -0.275 OA
ENDROOT
BRANCH   7  12
ATOM     12  C16 <0> d   1       9.054  -3.114  -0.940  0.00  0.00     0.312 C 
BRANCH  12  13
ATOM     13  N1  <0> d   1       8.052  -2.652   0.030  0.00  0.00     0.096 N 
ATOM     14  C20 <0> d   1       6.699  -2.717  -0.540  0.00  0.00     0.303 C 
ATOM     15  C19 <0> d   1       5.680  -2.304   0.525  0.00  0.00     0.303 C 
ATOM     16  N2  <0> d   1       5.987  -0.944   0.991  0.00  0.00     0.096 N 
ATOM     17  C18 <0> d   1       7.340  -0.879   1.560  0.00  0.00     0.303 C 
ATOM     18  C17 <0> d   1       8.359  -1.292   0.496  0.00  0.00     0.303 C 
BRANCH  16  19
ATOM     19  C21 <0> d   1       4.985  -0.481   1.961  0.00  0.00     0.311 C 
BRANCH  19  20
ATOM     20  C22 <0> d   1       3.653  -0.329   1.273  0.00  0.00    -0.027 A 
ATOM     21  C27 <0> d   1       3.311   0.879   0.692  0.00  0.00     0.048 A 
ATOM     22  C26 <0> d   1       2.087   1.021   0.059  0.00  0.00     0.105 A 
ATOM     23  C25 <0> d   1       1.204  -0.054   0.009  0.00  0.00     0.105 A 
ATOM     24  O4  <0> d   1       1.518   2.084  -0.581  0.00  0.00    -0.323 OA
ATOM     25  C24 <0> d   1       1.553  -1.261   0.593  0.00  0.00     0.040 A 
ATOM     26  O5  <0> d   1       0.081   0.335  -0.662  0.00  0.00    -0.323 OA
ATOM     27  C23 <0> d   1       2.776  -1.396   1.224  0.00  0.00     0.012 A 
ATOM     28  C28 <0> d   1       0.114   1.775  -0.666  0.00  0.00     0.352 C 
ENDBRANCH  19  20
ENDBRANCH  16  19
ENDBRANCH  12  13
ENDBRANCH   7  12
BRANCH   6  29
ATOM     29  O1  <0> d   1       9.893  -6.660   2.690  0.00  0.00    -0.360 OA
ATOM     30  H8  <0> d   1      10.195  -5.689   3.107  0.00  0.00     0.217 HD
ENDBRANCH   6  29
BRANCH   1  31
ATOM     31  C4  <0> d   1       9.147  -9.199   1.714  0.00  0.00    -0.023 A 
ATOM     32  C3  <0> d   1      10.347  -9.484   2.365  0.00  0.00     0.012 A 
ATOM     33  C2  <0> d   1      10.459 -10.627   3.129  0.00  0.00     0.001 A 
ATOM     34  C1  <0> d   1       9.385 -11.491   3.250  0.00  0.00     0.000 A 
ATOM     35  C6  <0> d   1       8.192 -11.214   2.606  0.00  0.00     0.001 A 
ATOM     36  C5  <0> d   1       8.066 -10.070   1.844  0.00  0.00     0.012 A 
ENDBRANCH   1  31
TORSDOF 6
