REMARK  7 active torsions:
REMARK  status: ('A' for Active; 'I' for Inactive)
REMARK    1  A    between atoms: C4_4  and  O4_29 
REMARK    2  A    between atoms: C5_5  and  C16_19 
REMARK    3  A    between atoms: C10_11  and  C11_12 
REMARK    4  A    between atoms: C16_19  and  N2_20 
REMARK    5  A    between atoms: N3_23  and  C21_26 
REMARK    6  A    between atoms: C21_26  and  C22_27 
REMARK    7  A    between atoms: C22_27  and  O3_28 
ROOT
ATOM      1  C1  <0> d   1       2.474   0.609  -0.484  0.00  0.00     0.049 C 
ATOM      2  C2  <0> d   1       1.272   1.514  -0.566  0.00  0.00    -0.042 A 
ATOM      3  C3  <0> d   1       0.013   0.988  -0.479  0.00  0.00     0.045 A 
ATOM      4  C4  <0> d   1      -1.099   1.821  -0.560  0.00  0.00     0.077 A 
ATOM      5  C5  <0> d   1      -0.946   3.189  -0.717  0.00  0.00     0.038 A 
ATOM      6  C6  <0> d   1       0.327   3.740  -0.806  0.00  0.00     0.102 A 
ATOM      7  C7  <0> d   1       1.441   2.889  -0.730  0.00  0.00     0.057 A 
ATOM      8  C8  <0> d   1       2.631   3.750  -0.855  0.00  0.00     0.219 A 
ATOM      9  O1  <0> d   1       3.802   3.412  -0.839  0.00  0.00    -0.284 OA
ATOM     10  C9  <0> d   1       2.088   5.110  -1.003  0.00  0.00     0.128 A 
ATOM     11  C10 <0> d   1       2.808   6.249  -1.149  0.00  0.00     0.054 C 
ATOM     12  O2  <0> d   1       0.738   5.017  -0.964  0.00  0.00    -0.305 OA
ENDROOT
BRANCH   5  13
ATOM     13  C16 <0> d   1      -2.159   4.080  -0.796  0.00  0.00     0.317 C 
BRANCH  13  14
ATOM     14  N2  <0> d   1      -2.581   4.208  -2.198  0.00  0.00     0.096 N 
ATOM     15  C20 <0> d   1      -3.890   4.868  -2.295  0.00  0.00     0.300 C 
ATOM     16  C19 <0> d   1      -4.329   4.911  -3.761  0.00  0.00     0.265 C 
ATOM     17  N3  <0> d   1      -3.319   5.630  -4.551  0.00  0.00    -0.066 N 
ATOM     18  C18 <0> d   1      -2.010   4.969  -4.454  0.00  0.00     0.265 C 
ATOM     19  H26 <0> d   1      -3.220   6.643  -4.135  0.00  0.00     0.280 HD
ATOM     20  C17 <0> d   1      -1.571   4.926  -2.988  0.00  0.00     0.300 C 
BRANCH  17  21
ATOM     21  C21 <0> d   1      -3.741   5.758  -5.952  0.00  0.00     0.260 C 
BRANCH  21  22
ATOM     22  C22 <0> d   1      -3.553   4.418  -6.666  0.00  0.00     0.192 C 
BRANCH  22  23
ATOM     23  O3  <0> d   1      -4.468   3.460  -6.130  0.00  0.00    -0.399 OA
ATOM     24  H24 <0> d   1      -4.480   2.432  -6.522  0.00  0.00     0.209 HD
ENDBRANCH  22  23
ENDBRANCH  21  22
ENDBRANCH  17  21
ENDBRANCH  13  14
ENDBRANCH   5  13
BRANCH   4  25
ATOM     25  O4  <0> d   1      -2.345   1.289  -0.478  0.00  0.00    -0.360 OA
ATOM     26  H25 <0> d   1      -3.228   1.943  -0.541  0.00  0.00     0.217 HD
ENDBRANCH   4  25
BRANCH  11  27
ATOM     27  C11 <0> d   1       2.130   7.553  -1.146  0.00  0.00    -0.016 A 
ATOM     28  C15 <0> d   1       2.842   8.727  -1.418  0.00  0.00     0.127 A 
ATOM     29  N1  <0> d   1       2.233   9.894  -1.414  0.00  0.00    -0.272 NA
ATOM     30  C14 <0> d   1       0.944  10.007  -1.157  0.00  0.00     0.116 A 
ATOM     31  C13 <0> d   1       0.169   8.895  -0.879  0.00  0.00     0.020 A 
ATOM     32  C12 <0> d   1       0.756   7.644  -0.875  0.00  0.00     0.014 A 
ENDBRANCH  11  27
TORSDOF 7
