REMARK  8 active torsions:
REMARK  status: ('A' for Active; 'I' for Inactive)
REMARK    1  A    between atoms: C2_2  and  N1_3 
REMARK    2  A    between atoms: N2_6  and  C7_9 
REMARK    3  A    between atoms: C7_9  and  C8_10 
REMARK    4  A    between atoms: C8_10  and  O1_11 
REMARK    5  A    between atoms: O1_11  and  C9_12 
REMARK    6  A    between atoms: C14_17  and  C18_23 
REMARK    7  A    between atoms: C21_26  and  O5_31 
REMARK    8  A    between atoms: C22_27  and  O4_29 
ROOT
ATOM      1  C9  <0> d   1       2.220   4.190  -0.159  0.00  0.00     0.071 A 
ATOM      2  C10 <0> d   1       3.444   3.530  -0.077  0.00  0.00     0.038 A 
ATOM      3  C11 <0> d   1       3.498   2.168  -0.109  0.00  0.00     0.017 A 
ATOM      4  C12 <0> d   1       2.315   1.422  -0.225  0.00  0.00    -0.001 A 
ATOM      5  C13 <0> d   1       2.365   0.005  -0.258  0.00  0.00     0.032 A 
ATOM      6  C14 <0> d   1       1.195  -0.696  -0.372  0.00  0.00     0.051 A 
ATOM      7  C15 <0> d   1      -0.070   0.040  -0.455  0.00  0.00     0.299 A 
ATOM      8  O2  <0> d   1      -1.119  -0.567  -0.557  0.00  0.00    -0.259 OA
ATOM      9  O3  <0> d   1      -0.073   1.383  -0.420  0.00  0.00    -0.274 OA
ATOM     10  C16 <0> d   1       1.076   2.084  -0.308  0.00  0.00     0.092 A 
ATOM     11  C17 <0> d   1       1.041   3.471  -0.273  0.00  0.00     0.075 A 
ENDROOT
BRANCH   1  12
ATOM     12  O1  <0> d   1       2.181   5.546  -0.126  0.00  0.00    -0.349 OA
BRANCH  12  13
ATOM     13  C8  <0> d   1       3.432   6.228  -0.006  0.00  0.00     0.203 C 
BRANCH  13  14
ATOM     14  C7  <0> d   1       3.189   7.738   0.015  0.00  0.00     0.261 C 
BRANCH  14  15
ATOM     15  N2  <0> d   1       2.435   8.097   1.223  0.00  0.00    -0.066 N 
ATOM     16  C4  <0> d   1       3.302   8.075   2.410  0.00  0.00     0.265 C 
ATOM     17  C3  <0> d   1       2.465   8.375   3.655  0.00  0.00     0.300 C 
ATOM     18  N1  <0> d   1       1.817   9.686   3.503  0.00  0.00     0.091 N 
ATOM     19  C6  <0> d   1       0.950   9.707   2.317  0.00  0.00     0.300 C 
ATOM     20  C5  <0> d   1       1.788   9.407   1.071  0.00  0.00     0.265 C 
ATOM     21  H31 <0> d   1       1.647   7.343   1.365  0.00  0.00     0.280 HD
BRANCH  18  22
ATOM     22  C2  <0> d   1       1.063  10.044   4.712  0.00  0.00     0.268 C 
ATOM     23  C1  <0> d   1       0.615  11.504   4.619  0.00  0.00     0.037 C 
ENDBRANCH  18  22
ENDBRANCH  14  15
ENDBRANCH  13  14
ENDBRANCH  12  13
ENDBRANCH   1  12
BRANCH   6  24
ATOM     24  C18 <0> d   1       1.206  -2.177  -0.409  0.00  0.00    -0.017 A 
ATOM     25  C23 <0> d   1       0.368  -2.904   0.435  0.00  0.00     0.052 A 
ATOM     26  C22 <0> d   1       0.378  -4.286   0.393  0.00  0.00     0.102 A 
ATOM     27  C21 <0> d   1       1.232  -4.949  -0.484  0.00  0.00     0.101 A 
ATOM     28  C20 <0> d   1       2.070  -4.226  -1.320  0.00  0.00     0.040 A 
ATOM     29  C19 <0> d   1       2.060  -2.847  -1.286  0.00  0.00     0.015 A 
BRANCH  26  30
ATOM     30  O4  <0> d   1      -0.442  -4.998   1.212  0.00  0.00    -0.353 OA
ATOM     31  C24 <0> d   1      -1.292  -4.252   2.086  0.00  0.00     0.210 C 
ENDBRANCH  26  30
BRANCH  27  32
ATOM     32  O5  <0> d   1       1.245  -6.309  -0.521  0.00  0.00    -0.353 OA
ATOM     33  C25 <0> d   1       2.146  -6.924  -1.444  0.00  0.00     0.210 C 
ENDBRANCH  27  32
ENDBRANCH   6  24
TORSDOF 8
