REMARK  5 active torsions:
REMARK  status: ('A' for Active; 'I' for Inactive)
REMARK    1  A    between atoms: N2_5  and  C6_8 
REMARK    2  A    between atoms: C6_8  and  C7_9 
REMARK    3  A    between atoms: C8_10  and  O4_28 
REMARK    4  A    between atoms: C14_17  and  C15_18 
REMARK    5  A    between atoms: C18_21  and  O2_24 
ROOT
ATOM      1  C7  <0> d   1       2.321  -4.038   1.199  0.00  0.00     0.038 A 
ATOM      2  C8  <0> d   1       3.642  -4.316   0.887  0.00  0.00     0.076 A 
ATOM      3  C9  <0> d   1       4.437  -5.050   1.763  0.00  0.00     0.038 A 
ATOM      4  C10 <0> d   1       3.919  -5.504   2.943  0.00  0.00     0.021 A 
ATOM      5  C11 <0> d   1       2.590  -5.231   3.270  0.00  0.00     0.051 A 
ATOM      6  C12 <0> d   1       1.781  -4.487   2.397  0.00  0.00     0.101 A 
ATOM      7  O1  <0> d   1       0.547  -4.347   2.928  0.00  0.00    -0.305 OA
ATOM      8  C13 <0> d   1       0.447  -4.951   4.136  0.00  0.00     0.127 A 
ATOM      9  C14 <0> d   1      -0.658  -4.992   4.924  0.00  0.00     0.053 C 
ATOM     10  C22 <0> d   1       1.748  -5.567   4.433  0.00  0.00     0.218 A 
ATOM     11  O3  <0> d   1       2.064  -6.202   5.424  0.00  0.00    -0.284 OA
ENDROOT
BRANCH   9  12
ATOM     12  C15 <0> d   1      -1.934  -4.463   4.427  0.00  0.00    -0.033 A 
ATOM     13  C20 <0> d   1      -3.032  -4.350   5.289  0.00  0.00     0.014 A 
ATOM     14  C19 <0> d   1      -4.224  -3.847   4.819  0.00  0.00     0.037 A 
ATOM     15  C18 <0> d   1      -4.343  -3.463   3.488  0.00  0.00     0.068 A 
ATOM     16  C17 <0> d   1      -3.258  -3.578   2.626  0.00  0.00     0.037 A 
ATOM     17  C16 <0> d   1      -2.059  -4.074   3.087  0.00  0.00     0.014 A 
BRANCH  15  18
ATOM     18  O2  <0> d   1      -5.522  -2.974   3.028  0.00  0.00    -0.356 OA
ATOM     19  C21 <0> d   1      -6.596  -2.883   3.966  0.00  0.00     0.210 C 
ENDBRANCH  15  18
ENDBRANCH   9  12
BRANCH   1  20
ATOM     20  C6  <0> d   1       1.472  -3.243   0.240  0.00  0.00     0.317 C 
BRANCH  20  21
ATOM     21  N2  <0> d   1       1.596  -1.812   0.548  0.00  0.00     0.096 N 
ATOM     22  C3  <0> d   1       0.977  -0.992  -0.503  0.00  0.00     0.303 C 
ATOM     23  C2  <0> d   1       1.196   0.490  -0.185  0.00  0.00     0.302 C 
ATOM     24  N1  <0> d   1       0.616   0.797   1.129  0.00  0.00     0.087 N 
ATOM     25  C1  <0> d   1       0.739   2.228   1.437  0.00  0.00     0.310 C 
ATOM     26  C5  <0> d   1       1.234  -0.023   2.180  0.00  0.00     0.302 C 
ATOM     27  C4  <0> d   1       1.015  -1.504   1.863  0.00  0.00     0.303 C 
ENDBRANCH  20  21
ENDBRANCH   1  20
BRANCH   2  28
ATOM     28  O4  <0> d   1       4.166  -3.870  -0.283  0.00  0.00    -0.360 OA
ATOM     29  H24 <0> d   1       4.569  -2.993  -0.224  0.00  0.00     0.217 HD
ENDBRANCH   2  28
TORSDOF 5
