REMARK  7 active torsions:
REMARK  status: ('A' for Active; 'I' for Inactive)
REMARK    1  A    between atoms: C2_2  and  O1_3 
REMARK    2  A    between atoms: O1_3  and  C3_4 
REMARK    3  A    between atoms: C8_9  and  O2_10 
REMARK    4  A    between atoms: O2_10  and  C9_11 
REMARK    5  A    between atoms: C16_20  and  O6_29 
REMARK    6  A    between atoms: C17_21  and  C18_22 
REMARK    7  A    between atoms: C18_22  and  N1_23 
ROOT
ATOM      1  C9  <0> d   1      -0.993  -2.052   0.007  0.00  0.00     0.149 A 
ATOM      2  C10 <0> d   1       0.247  -2.578   0.044  0.00  0.00     0.184 A 
ATOM      3  O3  <0> d   1       0.475  -3.898   0.049  0.00  0.00    -0.318 OA
ATOM      4  C11 <0> d   1      -0.523  -4.803   0.005  0.00  0.00     0.100 A 
ATOM      5  C12 <0> d   1      -1.860  -4.367  -0.041  0.00  0.00     0.051 A 
ATOM      6  C13 <0> d   1      -2.122  -2.918  -0.041  0.00  0.00     0.220 A 
ATOM      7  O4  <0> d   1      -3.259  -2.478  -0.080  0.00  0.00    -0.284 OA
ATOM      8  C14 <0> d   1      -2.901  -5.295  -0.085  0.00  0.00     0.021 A 
ATOM      9  C15 <0> d   1      -2.618  -6.631  -0.085  0.00  0.00     0.038 A 
ATOM     10  C16 <0> d   1      -1.297  -7.072  -0.039  0.00  0.00     0.076 A 
ATOM     11  C17 <0> d   1      -0.253  -6.164   0.006  0.00  0.00     0.038 A 
ENDROOT
BRANCH   1  12
ATOM     12  O2  <0> d   1      -1.165  -0.701   0.009  0.00  0.00    -0.302 OA
BRANCH  12  13
ATOM     13  C8  <0> d   1      -1.368  -0.086   1.204  0.00  0.00     0.109 A 
ATOM     14  C3  <0> d   1      -1.443   1.302   1.270  0.00  0.00     0.102 A 
ATOM     15  C4  <0> d   1      -1.650   1.925   2.490  0.00  0.00     0.039 A 
ATOM     16  C5  <0> d   1      -1.781   1.167   3.639  0.00  0.00     0.003 A 
ATOM     17  C6  <0> d   1      -1.706  -0.212   3.574  0.00  0.00     0.003 A 
ATOM     18  C7  <0> d   1      -1.500  -0.839   2.360  0.00  0.00     0.040 A 
BRANCH  14  19
ATOM     19  O1  <0> d   1      -1.309   2.046   0.140  0.00  0.00    -0.349 OA
BRANCH  19  20
ATOM     20  C2  <0> d   1      -1.397   3.466   0.283  0.00  0.00     0.171 C 
ATOM     21  C1  <0> d   1      -1.223   4.128  -1.085  0.00  0.00     0.034 C 
ENDBRANCH  19  20
ENDBRANCH  14  19
ENDBRANCH  12  13
ENDBRANCH   1  12
BRANCH  11  22
ATOM     22  C18 <0> d   1       1.172  -6.652   0.056  0.00  0.00     0.317 C 
BRANCH  22  23
ATOM     23  N1  <0> d   1       1.584  -6.820   1.456  0.00  0.00     0.097 N 
ATOM     24  C22 <0> d   1       2.876  -7.516   1.546  0.00  0.00     0.299 C 
ATOM     25  C21 <0> d   1       3.237  -7.722   3.019  0.00  0.00     0.198 C 
ATOM     26  O5  <0> d   1       3.257  -6.455   3.682  0.00  0.00    -0.388 OA
ATOM     27  C20 <0> d   1       2.014  -5.751   3.615  0.00  0.00     0.198 C 
ATOM     28  C19 <0> d   1       1.640  -5.524   2.148  0.00  0.00     0.299 C 
ENDBRANCH  22  23
ENDBRANCH  11  22
BRANCH  10  29
ATOM     29  O6  <0> d   1      -1.032  -8.403  -0.038  0.00  0.00    -0.360 OA
ATOM     30  H23 <0> d   1       0.009  -8.757  -0.001  0.00  0.00     0.217 HD
ENDBRANCH  10  29
TORSDOF 7
