REMARK  8 active torsions:
REMARK  status: ('A' for Active; 'I' for Inactive)
REMARK    1  A    between atoms: C3_3  and  O3_24 
REMARK    2  A    between atoms: C6_6  and  C8_9 
REMARK    3  A    between atoms: C7_7  and  O1_8 
REMARK    4  A    between atoms: C9_10  and  C12_16 
REMARK    5  A    between atoms: C15_19  and  O2_22 
REMARK    6  A    between atoms: O3_24  and  C19_25 
REMARK    7  A    between atoms: C19_25  and  C20_26 
REMARK    8  A    between atoms: C20_26  and  N3_27 
ROOT
ATOM      1  C1  <0> d   1       0.717   2.541  -2.090  0.00  0.00     0.054 C 
ATOM      2  C2  <0> d   1       0.618   1.134  -1.560  0.00  0.00     0.005 A 
ATOM      3  C3  <0> d   1       0.475   0.070  -2.439  0.00  0.00     0.077 A 
ATOM      4  C4  <0> d   1       0.383  -1.228  -1.956  0.00  0.00     0.038 A 
ATOM      5  C5  <0> d   1       0.432  -1.468  -0.598  0.00  0.00     0.019 A 
ATOM      6  C6  <0> d   1       0.576  -0.406   0.292  0.00  0.00     0.029 A 
ATOM      7  C7  <0> d   1       0.674   0.902  -0.197  0.00  0.00     0.087 A 
ENDROOT
BRANCH   6   8
ATOM      8  C8  <0> d   1       0.630  -0.660   1.751  0.00  0.00     0.103 A 
ATOM      9  N2  <0> d   1       1.494  -0.143   2.596  0.00  0.00    -0.173 NA
ATOM     10  N1  <0> d   1       1.206  -0.629   3.877  0.00  0.00    -0.281 N 
ATOM     11  C10 <0> d   1       0.149  -1.464   3.788  0.00  0.00     0.037 A 
ATOM     12  H1  <0> d   1       1.687  -0.408   4.690  0.00  0.00     0.189 HD
ATOM     13  C9  <0> d   1      -0.238  -1.510   2.483  0.00  0.00     0.029 A 
ATOM     14  C11 <0> d   1      -0.489  -2.211   4.931  0.00  0.00     0.070 C 
BRANCH  13  15
ATOM     15  C12 <0> d   1      -1.363  -2.303   1.929  0.00  0.00    -0.021 A 
ATOM     16  C17 <0> d   1      -1.298  -3.695   1.919  0.00  0.00     0.015 A 
ATOM     17  C16 <0> d   1      -2.347  -4.429   1.408  0.00  0.00     0.037 A 
ATOM     18  C15 <0> d   1      -3.463  -3.784   0.894  0.00  0.00     0.068 A 
ATOM     19  C14 <0> d   1      -3.529  -2.397   0.897  0.00  0.00     0.037 A 
ATOM     20  C13 <0> d   1      -2.485  -1.657   1.412  0.00  0.00     0.015 A 
BRANCH  18  21
ATOM     21  O2  <0> d   1      -4.494  -4.510   0.387  0.00  0.00    -0.356 OA
ATOM     22  C18 <0> d   1      -4.360  -5.933   0.415  0.00  0.00     0.210 C 
ENDBRANCH  18  21
ENDBRANCH  13  15
ENDBRANCH   6   8
BRANCH   7  23
ATOM     23  O1  <0> d   1       0.819   1.942   0.666  0.00  0.00    -0.359 OA
ATOM     24  H9  <0> d   1      -0.017   2.324   0.966  0.00  0.00     0.217 HD
ENDBRANCH   7  23
BRANCH   3  25
ATOM     25  O3  <0> d   1       0.425   0.300  -3.778  0.00  0.00    -0.349 OA
BRANCH  25  26
ATOM     26  C19 <0> d   1       0.277  -0.840  -4.626  0.00  0.00     0.206 C 
BRANCH  26  27
ATOM     27  C20 <0> d   1       0.240  -0.387  -6.087  0.00  0.00     0.299 C 
BRANCH  27  28
ATOM     28  N3  <0> d   1       1.534   0.209  -6.447  0.00  0.00     0.095 N 
ATOM     29  C24 <0> d   1       2.555  -0.830  -6.648  0.00  0.00     0.303 C 
ATOM     30  C23 <0> d   1       3.897  -0.164  -6.962  0.00  0.00     0.146 C 
ATOM     31  O4  <0> d   1       3.749   0.678  -8.108  0.00  0.00    -0.378 OA
ATOM     32  C25 <0> d   1       4.947  -1.240  -7.251  0.00  0.00     0.041 C 
ATOM     33  C22 <0> d   1       2.763   1.702  -7.947  0.00  0.00     0.146 C 
ATOM     34  C21 <0> d   1       1.409   1.055  -7.643  0.00  0.00     0.303 C 
ATOM     35  C26 <0> d   1       3.163   2.619  -6.790  0.00  0.00     0.041 C 
ENDBRANCH  27  28
ENDBRANCH  26  27
ENDBRANCH  25  26
ENDBRANCH   3  25
TORSDOF 8
