REMARK  6 active torsions:
REMARK  status: ('A' for Active; 'I' for Inactive)
REMARK    1  A    between atoms: C4_4  and  C7_7 
REMARK    2  A    between atoms: C8_8  and  C9_9 
REMARK    3  A    between atoms: C9_9  and  N1_10 
REMARK    4  A    between atoms: N2_13  and  C14_16 
REMARK    5  A    between atoms: C14_16  and  C15_17 
REMARK    6  A    between atoms: C22_26  and  O3_28 
ROOT
ATOM      1  N1  <0> d   1       5.087  -3.681   1.066  0.00  0.00     0.095 N 
ATOM      2  C10 <0> d   1       5.107  -2.962   2.347  0.00  0.00     0.303 C 
ATOM      3  C11 <0> d   1       5.082  -3.973   3.496  0.00  0.00     0.303 C 
ATOM      4  N2  <0> d   1       6.240  -4.870   3.381  0.00  0.00     0.096 N 
ATOM      5  C12 <0> d   1       6.220  -5.589   2.099  0.00  0.00     0.303 C 
ATOM      6  C13 <0> d   1       6.245  -4.579   0.950  0.00  0.00     0.303 C 
ENDROOT
BRANCH   4   7
ATOM      7  C14 <0> d   1       6.294  -5.809   4.510  0.00  0.00     0.312 C 
BRANCH   7   8
ATOM      8  C15 <0> d   1       7.611  -6.541   4.492  0.00  0.00    -0.011 A 
ATOM      9  C19 <0> d   1       7.792  -7.744   3.676  0.00  0.00     0.008 A 
ATOM     10  C18 <0> d   1       9.041  -8.393   3.687  0.00  0.00     0.093 A 
ATOM     11  C20 <0> d   1       6.748  -8.245   2.890  0.00  0.00     0.041 A 
ATOM     12  O2  <0> d   1      10.044  -7.909   4.451  0.00  0.00    -0.275 OA
ATOM     13  C23 <0> d   1       9.224  -9.529   2.914  0.00  0.00     0.076 A 
ATOM     14  C17 <0> d   1       9.882  -6.810   5.205  0.00  0.00     0.288 A 
ATOM     15  C16 <0> d   1       8.661  -6.107   5.237  0.00  0.00     0.092 A 
ATOM     16  O1  <0> d   1      10.816  -6.410   5.877  0.00  0.00    -0.260 OA
ATOM     17  C22 <0> d   1       8.177 -10.018   2.150  0.00  0.00     0.090 A 
ATOM     18  C21 <0> d   1       6.944  -9.368   2.139  0.00  0.00     0.068 A 
ATOM     19 Cl1  <0> d   1       5.649  -9.990   1.164  0.00  0.00    -0.081 Cl
BRANCH  17  20
ATOM     20  O3  <0> d   1       8.357 -11.134   1.398  0.00  0.00    -0.359 OA
ATOM     21  H23 <0> d   1       8.678 -10.958   0.503  0.00  0.00     0.217 HD
ENDBRANCH  17  20
ENDBRANCH   7   8
ENDBRANCH   4   7
BRANCH   1  22
ATOM     22  C9  <0> d   1       5.033  -2.743  -0.063  0.00  0.00     0.300 C 
BRANCH  22  23
ATOM     23  C8  <0> d   1       3.716  -2.010  -0.046  0.00  0.00     0.004 C 
ATOM     24  C7  <0> d   1       3.695  -0.685  -0.038  0.00  0.00     0.009 C 
BRANCH  24  25
ATOM     25  C4  <0> d   1       2.403   0.034  -0.021  0.00  0.00    -0.036 A 
ATOM     26  C3  <0> d   1       2.377   1.429  -0.013  0.00  0.00     0.011 A 
ATOM     27  C2  <0> d   1       1.168   2.093   0.002  0.00  0.00     0.001 A 
ATOM     28  C1  <0> d   1      -0.017   1.379   0.010  0.00  0.00     0.000 A 
ATOM     29  C6  <0> d   1       0.002  -0.004   0.002  0.00  0.00     0.001 A 
ATOM     30  C5  <0> d   1       1.204  -0.681  -0.013  0.00  0.00     0.011 A 
ENDBRANCH  24  25
ENDBRANCH  22  23
ENDBRANCH   1  22
TORSDOF 6
