REMARK  5 active torsions:
REMARK  status: ('A' for Active; 'I' for Inactive)
REMARK    1  A    between atoms: C2_2  and  C3_3 
REMARK    2  A    between atoms: C7_8  and  C18_23 
REMARK    3  A    between atoms: C10_12  and  C12_15 
REMARK    4  A    between atoms: C11_13  and  O3_14 
REMARK    5  A    between atoms: C12_15  and  N1_16 
ROOT
ATOM      1  C3  <0> d   1      -0.559   3.533   5.235  0.00  0.00    -0.024 A 
ATOM      2  C4  <0> d   1      -1.656   3.032   5.878  0.00  0.00     0.028 A 
ATOM      3  C5  <0> d   1      -2.260   1.865   5.409  0.00  0.00     0.050 A 
ATOM      4  C6  <0> d   1      -3.445   1.296   6.077  0.00  0.00     0.199 A 
ATOM      5  O1  <0> d   1      -3.939   1.822   7.059  0.00  0.00    -0.286 OA
ATOM      6  C7  <0> d   1      -4.003   0.060   5.499  0.00  0.00     0.073 A 
ATOM      7  C8  <0> d   1      -3.403  -0.476   4.400  0.00  0.00     0.161 A 
ATOM      8  O2  <0> d   1      -2.331   0.074   3.829  0.00  0.00    -0.320 OA
ATOM      9  C9  <0> d   1      -1.747   1.202   4.281  0.00  0.00     0.100 A 
ATOM     10  C10 <0> d   1      -0.631   1.724   3.640  0.00  0.00     0.038 A 
ATOM     11  C11 <0> d   1      -0.039   2.880   4.120  0.00  0.00     0.082 A 
ENDROOT
BRANCH   6  12
ATOM     12  C18 <0> d   1      -5.189  -0.583   6.099  0.00  0.00     0.115 A 
ATOM     13  S1  <0> d   1      -6.135  -0.079   7.529  0.00  0.00    -0.067 SA
ATOM     14  C24 <0> d   1      -7.321  -1.401   7.489  0.00  0.00     0.035 A 
ATOM     15  C19 <0> d   1      -6.897  -2.153   6.368  0.00  0.00     0.075 A 
ATOM     16  C23 <0> d   1      -8.406  -1.759   8.251  0.00  0.00     0.021 A 
ATOM     17  N3  <0> d   1      -5.816  -1.677   5.720  0.00  0.00    -0.239 NA
ATOM     18  C20 <0> d   1      -7.657  -3.309   6.068  0.00  0.00     0.033 A 
ATOM     19  C21 <0> d   1      -8.730  -3.654   6.829  0.00  0.00     0.002 A 
ATOM     20  C22 <0> d   1      -9.122  -2.895   7.923  0.00  0.00     0.002 A 
ENDBRANCH   6  12
BRANCH   1  21
ATOM     21  C2  <0> d   1       0.095   4.793   5.740  0.00  0.00     0.037 C 
ATOM     22  C1  <0> d   1      -0.454   5.996   4.969  0.00  0.00     0.010 C 
ENDBRANCH   1  21
BRANCH  10  23
ATOM     23  C12 <0> d   1      -0.062   1.031   2.429  0.00  0.00     0.317 C 
BRANCH  23  24
ATOM     24  N1  <0> d   1      -0.701   1.560   1.216  0.00  0.00     0.096 N 
ATOM     25  C16 <0> d   1      -0.754   3.029   1.247  0.00  0.00     0.303 C 
ATOM     26  C15 <0> d   1      -1.495   3.536   0.008  0.00  0.00     0.302 C 
ATOM     27  N2  <0> d   1      -0.806   3.062  -1.200  0.00  0.00     0.087 N 
ATOM     28  C14 <0> d   1      -0.754   1.593  -1.231  0.00  0.00     0.302 C 
ATOM     29  C17 <0> d   1      -1.445   3.591  -2.413  0.00  0.00     0.310 C 
ATOM     30  C13 <0> d   1      -0.013   1.086   0.008  0.00  0.00     0.303 C 
ENDBRANCH  23  24
ENDBRANCH  10  23
BRANCH  11  31
ATOM     31  O3  <0> d   1       1.054   3.385   3.495  0.00  0.00    -0.359 OA
ATOM     32  H8  <0> d   1       1.469   2.874   2.614  0.00  0.00     0.217 HD
ENDBRANCH  11  31
TORSDOF 5
