REMARK  9 active torsions:
REMARK  status: ('A' for Active; 'I' for Inactive)
REMARK    1  A    between atoms: N2_5  and  C6_8 
REMARK    2  A    between atoms: C6_8  and  C7_9 
REMARK    3  A    between atoms: C8_10  and  O5_29 
REMARK    4  A    between atoms: C11_13  and  C13_16 
REMARK    5  A    between atoms: C12_14  and  O1_15 
REMARK    6  A    between atoms: C13_16  and  C14_18 
REMARK    7  A    between atoms: C14_18  and  C15_19 
REMARK    8  A    between atoms: C18_22  and  O4_27 
REMARK    9  A    between atoms: C19_23  and  O3_25 
ROOT
ATOM      1  C7  <0> d   1      -1.263   5.086  -2.464  0.00  0.00     0.037 A 
ATOM      2  C8  <0> d   1      -2.210   5.921  -1.888  0.00  0.00     0.076 A 
ATOM      3  C9  <0> d   1      -2.046   7.303  -1.927  0.00  0.00     0.038 A 
ATOM      4  C10 <0> d   1      -0.958   7.852  -2.541  0.00  0.00     0.021 A 
ATOM      5  C11 <0> d   1       0.006   7.025  -3.133  0.00  0.00     0.044 A 
ATOM      6  C12 <0> d   1      -0.155   5.628  -3.091  0.00  0.00     0.090 A 
ENDROOT
BRANCH   5   7
ATOM      7  C13 <0> d   1       1.175   7.612  -3.793  0.00  0.00     0.166 C 
ATOM      8  O2  <0> d   1       2.007   6.893  -4.305  0.00  0.00    -0.292 OA
BRANCH   7   9
ATOM      9  C14 <0> d   1       1.343   9.109  -3.836  0.00  0.00     0.122 C 
BRANCH   9  10
ATOM     10  C15 <0> d   1       2.616   9.451  -4.566  0.00  0.00    -0.048 A 
ATOM     11  C20 <0> d   1       2.596   9.645  -5.935  0.00  0.00     0.047 A 
ATOM     12  C19 <0> d   1       3.766   9.959  -6.607  0.00  0.00     0.102 A 
ATOM     13  C18 <0> d   1       4.960  10.078  -5.902  0.00  0.00     0.101 A 
ATOM     14  C17 <0> d   1       4.973   9.882  -4.530  0.00  0.00     0.040 A 
ATOM     15  C16 <0> d   1       3.801   9.575  -3.865  0.00  0.00     0.010 A 
BRANCH  12  16
ATOM     16  O3  <0> d   1       3.748  10.150  -7.954  0.00  0.00    -0.353 OA
ATOM     17  C21 <0> d   1       2.487  10.011  -8.612  0.00  0.00     0.210 C 
ENDBRANCH  12  16
BRANCH  13  18
ATOM     18  O4  <0> d   1       6.111  10.387  -6.557  0.00  0.00    -0.353 OA
ATOM     19  C22 <0> d   1       7.298  10.493  -5.769  0.00  0.00     0.210 C 
ENDBRANCH  13  18
ENDBRANCH   9  10
ENDBRANCH   7   9
ENDBRANCH   5   7
BRANCH   6  20
ATOM     20  O1  <0> d   1       0.771   4.818  -3.661  0.00  0.00    -0.359 OA
ATOM     21  H28 <0> d   1       1.651   5.252  -4.158  0.00  0.00     0.217 HD
ENDBRANCH   6  20
BRANCH   1  22
ATOM     22  C6  <0> d   1      -1.445   3.591  -2.413  0.00  0.00     0.317 C 
BRANCH  22  23
ATOM     23  N2  <0> d   1      -0.806   3.062  -1.200  0.00  0.00     0.096 N 
ATOM     24  C3  <0> d   1      -0.754   1.593  -1.231  0.00  0.00     0.300 C 
ATOM     25  C2  <0> d   1      -0.013   1.086   0.008  0.00  0.00     0.264 C 
ATOM     26  N1  <0> d   1      -0.701   1.560   1.216  0.00  0.00    -0.072 N 
ATOM     27  C1  <0> d   1      -0.062   1.031   2.429  0.00  0.00     0.269 C 
ATOM     28  C5  <0> d   1      -0.754   3.029   1.247  0.00  0.00     0.264 C 
ATOM     29  H29 <0> d   1      -1.735   1.184   1.189  0.00  0.00     0.279 HD
ATOM     30  C4  <0> d   1      -1.495   3.536   0.008  0.00  0.00     0.300 C 
ENDBRANCH  22  23
ENDBRANCH   1  22
BRANCH   2  31
ATOM     31  O5  <0> d   1      -3.299   5.388  -1.279  0.00  0.00    -0.360 OA
ATOM     32  H27 <0> d   1      -4.051   6.047  -0.821  0.00  0.00     0.217 HD
ENDBRANCH   2  31
TORSDOF 9
