REMARK  8 active torsions:
REMARK  status: ('A' for Active; 'I' for Inactive)
REMARK    1  A    between atoms: C4_4  and  C7_7 
REMARK    2  A    between atoms: C9_12  and  C10_13 
REMARK    3  A    between atoms: C13_16  and  O2_20 
REMARK    4  A    between atoms: C15_18  and  O1_19 
REMARK    5  A    between atoms: O2_20  and  C16_21 
REMARK    6  A    between atoms: C16_21  and  C17_22 
REMARK    7  A    between atoms: C17_22  and  N3_23 
REMARK    8  A    between atoms: N4_26  and  C22_29 
ROOT
ATOM      1  C10 <0> d   1       2.622  -2.513   1.411  0.00  0.00     0.026 A 
ATOM      2  C11 <0> d   1       2.924  -2.170   2.730  0.00  0.00     0.019 A 
ATOM      3  C12 <0> d   1       2.175  -2.688   3.764  0.00  0.00     0.038 A 
ATOM      4  C13 <0> d   1       1.120  -3.552   3.499  0.00  0.00     0.071 A 
ATOM      5  C14 <0> d   1       0.812  -3.899   2.192  0.00  0.00     0.074 A 
ATOM      6  C15 <0> d   1       1.553  -3.379   1.145  0.00  0.00     0.081 A 
ENDROOT
BRANCH   4   7
ATOM      7  O2  <0> d   1       0.387  -4.060   4.524  0.00  0.00    -0.349 OA
BRANCH   7   8
ATOM      8  C16 <0> d   1       0.757  -3.663   5.846  0.00  0.00     0.203 C 
BRANCH   8   9
ATOM      9  C17 <0> d   1      -0.174  -4.331   6.859  0.00  0.00     0.261 C 
BRANCH   9  10
ATOM     10  N3  <0> d   1       0.006  -5.788   6.804  0.00  0.00    -0.066 N 
ATOM     11  C21 <0> d   1       1.355  -6.130   7.273  0.00  0.00     0.254 C 
ATOM     12  C20 <0> d   1       1.584  -7.636   7.109  0.00  0.00     0.150 C 
ATOM     13  N4  <0> d   1       0.501  -8.352   7.801  0.00  0.00    -0.375 N 
ATOM     14  C19 <0> d   1      -0.886  -7.957   7.511  0.00  0.00     0.150 C 
ATOM     15  C18 <0> d   1      -0.999  -6.436   7.656  0.00  0.00     0.254 C 
ATOM     16  H28 <0> d   1      -0.109  -6.104   5.853  0.00  0.00     0.280 HD
BRANCH  13  17
ATOM     17  C22 <0> d   1       0.782  -9.377   8.709  0.00  0.00     0.069 A 
ATOM     18  C27 <0> d   1       0.963  -9.084  10.057  0.00  0.00     0.142 A 
ATOM     19  C26 <0> d   1       1.235 -10.102  10.952  0.00  0.00     0.044 A 
ATOM     20  F1  <0> d   1       0.868  -7.808  10.491  0.00  0.00    -0.204 F 
ATOM     21  C25 <0> d   1       1.338 -11.407  10.507  0.00  0.00     0.003 A 
ATOM     22  C24 <0> d   1       1.164 -11.700   9.167  0.00  0.00     0.002 A 
ATOM     23  C23 <0> d   1       0.886 -10.689   8.267  0.00  0.00     0.032 A 
ENDBRANCH  13  17
ENDBRANCH   9  10
ENDBRANCH   8   9
ENDBRANCH   7   8
ENDBRANCH   4   7
BRANCH   6  24
ATOM     24  O1  <0> d   1       1.249  -3.712  -0.137  0.00  0.00    -0.360 OA
ATOM     25  H11 <0> d   1       1.709  -4.500  -0.458  0.00  0.00     0.217 HD
ENDBRANCH   6  24
BRANCH   1  26
ATOM     26  C9  <0> d   1       3.421  -1.959   0.300  0.00  0.00     0.075 A 
ATOM     27  C7  <0> d   1       4.257  -2.671  -0.552  0.00  0.00     0.022 A 
ATOM     28  C8  <0> d   1       4.810  -1.751  -1.460  0.00  0.00     0.153 A 
ATOM     29  N1  <0> d   1       4.349  -0.561  -1.178  0.00  0.00    -0.186 NA
ATOM     30  N2  <0> d   1       3.482  -0.653  -0.083  0.00  0.00    -0.277 N 
ATOM     31  H1  <0> d   1       3.005   0.084   0.329  0.00  0.00     0.189 HD
BRANCH  27  32
ATOM     32  C4  <0> d   1       4.513  -4.131  -0.514  0.00  0.00    -0.022 A 
ATOM     33  C3  <0> d   1       4.298  -4.908  -1.651  0.00  0.00     0.012 A 
ATOM     34  C2  <0> d   1       4.538  -6.266  -1.611  0.00  0.00     0.001 A 
ATOM     35  C1  <0> d   1       4.992  -6.857  -0.444  0.00  0.00     0.000 A 
ATOM     36  C6  <0> d   1       5.207  -6.090   0.687  0.00  0.00     0.001 A 
ATOM     37  C5  <0> d   1       4.970  -4.731   0.658  0.00  0.00     0.012 A 
ENDBRANCH  27  32
ENDBRANCH   1  26
TORSDOF 8
