REMARK  3 active torsions:
REMARK  status: ('A' for Active; 'I' for Inactive)
REMARK    1  A    between atoms: C9_10  and  C10_11 
REMARK    2  A    between atoms: N1_20  and  C19_23 
REMARK    3  A    between atoms: C19_23  and  C20_24 
ROOT
ATOM      1  C1  <0> d   1       4.500   1.809  -6.057  0.00  0.00     0.054 C 
ATOM      2  C2  <0> d   1       3.474   0.859  -5.495  0.00  0.00     0.007 A 
ATOM      3  C3  <0> d   1       3.124   0.932  -4.154  0.00  0.00     0.087 A 
ATOM      4  C4  <0> d   1       2.177   0.061  -3.625  0.00  0.00     0.005 A 
ATOM      5  C5  <0> d   1       1.585  -0.877  -4.426  0.00  0.00     0.030 A 
ATOM      6  C6  <0> d   1       1.930  -0.963  -5.774  0.00  0.00     0.052 A 
ATOM      7  C7  <0> d   1       2.883  -0.088  -6.321  0.00  0.00     0.099 A 
ATOM      8  O1  <0> d   1       3.050  -0.358  -7.634  0.00  0.00    -0.305 OA
ATOM      9  C8  <0> d   1       2.263  -1.381  -8.042  0.00  0.00     0.127 A 
ATOM     10  C9  <0> d   1       2.198  -1.891  -9.296  0.00  0.00     0.053 C 
ATOM     11  C16 <0> d   1       1.490  -1.838  -6.875  0.00  0.00     0.218 A 
ATOM     12  O2  <0> d   1       0.670  -2.739  -6.830  0.00  0.00    -0.284 OA
ATOM     13  C17 <0> d   1       1.786   0.137  -2.171  0.00  0.00     0.317 C 
ATOM     14  N1  <0> d   1       2.803   0.895  -1.427  0.00  0.00     0.120 N 
ATOM     15  C18 <0> d   1       3.096   2.162  -2.117  0.00  0.00     0.448 C 
ATOM     16  O3  <0> d   1       3.720   1.867  -3.368  0.00  0.00    -0.320 OA
ENDROOT
BRANCH  10  17
ATOM     17  C10 <0> d   1       2.948  -1.254 -10.388  0.00  0.00    -0.034 A 
ATOM     18  C15 <0> d   1       3.830  -0.202 -10.116  0.00  0.00     0.011 A 
ATOM     19  C14 <0> d   1       4.531   0.389 -11.146  0.00  0.00     0.001 A 
ATOM     20  C13 <0> d   1       4.364  -0.056 -12.446  0.00  0.00     0.000 A 
ATOM     21  C12 <0> d   1       3.494  -1.096 -12.724  0.00  0.00     0.001 A 
ATOM     22  C11 <0> d   1       2.790  -1.702 -11.705  0.00  0.00     0.011 A 
ENDBRANCH  10  17
BRANCH  14  23
ATOM     23  C19 <0> d   1       2.372   1.136  -0.043  0.00  0.00     0.315 C 
BRANCH  23  24
ATOM     24  C20 <0> d   1       1.048   1.857  -0.048  0.00  0.00    -0.013 A 
ATOM     25  C24 <0> d   1      -0.136   1.144  -0.044  0.00  0.00     0.125 A 
ATOM     26  N2  <0> d   1      -1.298   1.768  -0.053  0.00  0.00    -0.273 NA
ATOM     27  C23 <0> d   1      -1.379   3.084  -0.054  0.00  0.00     0.116 A 
ATOM     28  C22 <0> d   1      -0.237   3.862  -0.057  0.00  0.00     0.020 A 
ATOM     29  C21 <0> d   1       1.003   3.243  -0.054  0.00  0.00     0.012 A 
ENDBRANCH  23  24
ENDBRANCH  14  23
TORSDOF 3
