REMARK  4 active torsions:
REMARK  status: ('A' for Active; 'I' for Inactive)
REMARK    1  A    between atoms: N1_4  and  C7_9 
REMARK    2  A    between atoms: C7_9  and  C8_10 
REMARK    3  A    between atoms: C8_10  and  C9_12 
REMARK    4  A    between atoms: C12_15  and  O4_19 
ROOT
ATOM      1  C8  <0> d   1      -1.293   2.116   0.020  0.00  0.00     0.190 C 
ATOM      2  O2  <0> d   1      -1.306   3.330   0.026  0.00  0.00    -0.290 OA
ENDROOT
BRANCH   1   3
ATOM      3  C7  <0> d   1      -2.590   1.349   0.022  0.00  0.00     0.356 C 
BRANCH   3   4
ATOM      4  N1  <0> d   1      -3.717   2.292   0.032  0.00  0.00     0.100 N 
ATOM      5  C3  <0> d   1      -4.989   1.594  -0.204  0.00  0.00     0.304 C 
ATOM      6  C2  <0> d   1      -6.127   2.619  -0.244  0.00  0.00     0.146 C 
ATOM      7  C1  <0> d   1      -7.463   1.892  -0.411  0.00  0.00     0.041 C 
ATOM      8  O1  <0> d   1      -6.135   3.362   0.977  0.00  0.00    -0.378 OA
ATOM      9  C5  <0> d   1      -4.911   4.055   1.238  0.00  0.00     0.146 C 
ATOM     10  C4  <0> d   1      -3.762   3.045   1.294  0.00  0.00     0.304 C 
ATOM     11  C6  <0> d   1      -5.014   4.787   2.578  0.00  0.00     0.041 C 
ENDBRANCH   3   4
ENDBRANCH   1   3
BRANCH   1  12
ATOM     12  C9  <0> d   1      -0.017   1.397   0.010  0.00  0.00     0.048 A 
ATOM     13  C14 <0> d   1       1.196   2.110   0.002  0.00  0.00     0.123 A 
ATOM     14  C13 <0> d   1       2.395   1.419  -0.013  0.00  0.00     0.077 A 
ATOM     15  O3  <0> d   1       1.190   3.466   0.009  0.00  0.00    -0.191 OA
ATOM     16  C12 <0> d   1       2.394   0.032  -0.021  0.00  0.00     0.068 A 
ATOM     17  C11 <0> d   1       1.192  -0.671  -0.013  0.00  0.00     0.037 A 
ATOM     18  C10 <0> d   1       0.002  -0.004   0.002  0.00  0.00     0.021 A 
BRANCH  16  19
ATOM     19  O4  <0> d   1       3.571  -0.644  -0.037  0.00  0.00    -0.361 OA
ATOM     20  H18 <0> d   1       4.522  -0.091  -0.043  0.00  0.00     0.217 HD
ENDBRANCH  16  19
ENDBRANCH   1  12
TORSDOF 4
