REMARK  6 active torsions:
REMARK  status: ('A' for Active; 'I' for Inactive)
REMARK    1  A    between atoms: O1_2  and  C2_3 
REMARK    2  A    between atoms: C5_6  and  O2_9 
REMARK    3  A    between atoms: O2_9  and  C8_10 
REMARK    4  A    between atoms: C14_17  and  C18_25 
REMARK    5  A    between atoms: C16_20  and  C17_21 
REMARK    6  A    between atoms: C18_25  and  N1_26 
ROOT
ATOM      1  C8  <0> d   1      -1.174   3.408   0.026  0.00  0.00     0.165 A 
ATOM      2  C9  <0> d   1      -1.159   4.118   1.260  0.00  0.00     0.221 A 
ATOM      3  O3  <0> d   1      -1.171   3.532   2.330  0.00  0.00    -0.284 OA
ATOM      4  C10 <0> d   1      -1.123   5.589   1.191  0.00  0.00     0.052 A 
ATOM      5  C11 <0> d   1      -1.102   6.371   2.347  0.00  0.00     0.021 A 
ATOM      6  C12 <0> d   1      -1.074   7.732   2.242  0.00  0.00     0.041 A 
ATOM      7  C13 <0> d   1      -1.067   8.343   0.990  0.00  0.00     0.118 A 
ATOM      8  C14 <0> d   1      -1.088   7.581  -0.166  0.00  0.00     0.041 A 
ATOM      9  C15 <0> d   1      -1.116   6.196  -0.077  0.00  0.00     0.101 A 
ATOM     10  O4  <0> d   1      -1.137   5.431  -1.187  0.00  0.00    -0.301 OA
ATOM     11  C16 <0> d   1      -1.165   4.092  -1.135  0.00  0.00     0.197 A 
ATOM     12  O6  <0> d   1      -1.039   9.698   0.902  0.00  0.00    -0.191 OA
ENDROOT
BRANCH   1  13
ATOM     13  O2  <0> d   1      -1.203   2.047   0.019  0.00  0.00    -0.304 OA
BRANCH  13  14
ATOM     14  C5  <0> d   1      -0.017   1.383   0.010  0.00  0.00     0.076 A 
ATOM     15  C4  <0> d   1       0.002  -0.004   0.002  0.00  0.00     0.040 A 
ATOM     16  C3  <0> d   1       1.208  -0.678  -0.013  0.00  0.00     0.039 A 
ATOM     17  C2  <0> d   1       2.399   0.032  -0.021  0.00  0.00     0.068 A 
ATOM     18  C7  <0> d   1       2.381   1.419  -0.013  0.00  0.00     0.039 A 
ATOM     19  C6  <0> d   1       1.175   2.093   0.002  0.00  0.00     0.040 A 
BRANCH  17  20
ATOM     20  O1  <0> d   1       3.586  -0.632  -0.035  0.00  0.00    -0.356 OA
ATOM     21  C1  <0> d   1       4.774   0.162  -0.042  0.00  0.00     0.210 C 
ENDBRANCH  17  20
ENDBRANCH  13  14
ENDBRANCH   1  13
BRANCH  11  22
ATOM     22  C17 <0> d   1      -1.187   3.320  -2.429  0.00  0.00     0.442 C 
ATOM     23  F1  <0> d   1      -2.512   3.108  -2.823  0.00  0.00    -0.164 F 
ATOM     24  F2  <0> d   1      -0.516   4.048  -3.418  0.00  0.00    -0.164 F 
ATOM     25  F3  <0> d   1      -0.552   2.087  -2.247  0.00  0.00    -0.164 F 
ENDBRANCH  11  22
BRANCH   8  26
ATOM     26  C18 <0> d   1      -1.080   8.253  -1.515  0.00  0.00     0.317 C 
BRANCH  26  27
ATOM     27  N1  <0> d   1      -2.463   8.500  -1.946  0.00  0.00     0.097 N 
ATOM     28  C22 <0> d   1      -2.497   9.360  -3.138  0.00  0.00     0.299 C 
ATOM     29  C21 <0> d   1      -3.954   9.640  -3.517  0.00  0.00     0.198 C 
ATOM     30  O5  <0> d   1      -4.633   8.399  -3.725  0.00  0.00    -0.388 OA
ATOM     31  C20 <0> d   1      -4.620   7.537  -2.585  0.00  0.00     0.198 C 
ATOM     32  C19 <0> d   1      -3.170   7.236  -2.196  0.00  0.00     0.299 C 
ENDBRANCH  26  27
ENDBRANCH   8  26
TORSDOF 6
