REMARK  6 active torsions:
REMARK  status: ('A' for Active; 'I' for Inactive)
REMARK    1  A    between atoms: C2_2  and  O1_3 
REMARK    2  A    between atoms: O1_3  and  C3_4 
REMARK       I    between atoms: C3_4  and  N1_6 
REMARK    3  A    between atoms: N2_9  and  C8_12 
REMARK    4  A    between atoms: C8_12  and  C9_13 
REMARK    5  A    between atoms: C10_14  and  O5_32 
REMARK    6  A    between atoms: C16_21  and  C17_22 
ROOT
ATOM      1  C9  <0> d   1       4.372  -5.217   4.706  0.00  0.00     0.036 A 
ATOM      2  C10 <0> d   1       4.277  -5.501   6.059  0.00  0.00     0.076 A 
ATOM      3  C11 <0> d   1       4.590  -6.769   6.540  0.00  0.00     0.045 A 
ATOM      4  C12 <0> d   1       4.995  -7.749   5.678  0.00  0.00    -0.042 A 
ATOM      5  C13 <0> d   1       5.095  -7.478   4.314  0.00  0.00     0.057 A 
ATOM      6  C14 <0> d   1       4.777  -6.204   3.816  0.00  0.00     0.101 A 
ATOM      7  O3  <0> d   1       4.942  -6.184   2.475  0.00  0.00    -0.305 OA
ATOM      8  C15 <0> d   1       5.356  -7.382   2.001  0.00  0.00     0.128 A 
ATOM      9  C16 <0> d   1       5.612  -7.686   0.704  0.00  0.00     0.053 C 
ATOM     10  C23 <0> d   1       5.490  -8.292   3.150  0.00  0.00     0.219 A 
ATOM     11  O4  <0> d   1       5.838  -9.460   3.140  0.00  0.00    -0.284 OA
ATOM     12  C24 <0> d   1       5.334  -9.121   6.202  0.00  0.00     0.049 C 
ENDROOT
BRANCH   1  13
ATOM     13  C8  <0> d   1       4.029  -3.840   4.199  0.00  0.00     0.279 C 
BRANCH  13  14
ATOM     14  N2  <0> d   1       2.599  -3.781   3.867  0.00  0.00    -0.064 N 
ATOM     15  C5  <0> d   1       2.242  -2.409   3.488  0.00  0.00     0.255 C 
ATOM     16  C4  <0> d   1       0.731  -2.322   3.252  0.00  0.00     0.156 C 
ATOM     17  N1  <0> d   1       0.354  -3.343   2.262  0.00  0.00    -0.325 N 
ATOM     18  C3  <0> d   1      -0.391  -3.022   1.185  0.00  0.00     0.362 C 
ATOM     19  C7  <0> d   1       0.808  -4.724   2.484  0.00  0.00     0.156 C 
ATOM     20  O2  <0> d   1      -0.697  -3.881   0.381  0.00  0.00    -0.238 OA
ATOM     21  C6  <0> d   1       2.320  -4.697   2.753  0.00  0.00     0.255 C 
ATOM     22  H26 <0> d   1       2.058  -4.058   4.672  0.00  0.00     0.280 HD
BRANCH  18  23
ATOM     23  O1  <0> d   1      -0.796  -1.752   1.001  0.00  0.00    -0.304 OA
BRANCH  23  24
ATOM     24  C2  <0> d   1      -1.583  -1.484  -0.162  0.00  0.00     0.176 C 
ATOM     25  C1  <0> d   1      -1.946   0.002  -0.200  0.00  0.00     0.034 C 
ENDBRANCH  23  24
ENDBRANCH  18  23
ENDBRANCH  13  14
ENDBRANCH   1  13
BRANCH   2  26
ATOM     26  O5  <0> d   1       3.877  -4.533   6.923  0.00  0.00    -0.360 OA
ATOM     27  H25 <0> d   1       2.920  -4.502   7.062  0.00  0.00     0.217 HD
ENDBRANCH   2  26
BRANCH   9  28
ATOM     28  C17 <0> d   1       5.580  -6.631  -0.318  0.00  0.00    -0.033 A 
ATOM     29  C22 <0> d   1       5.679  -6.963  -1.674  0.00  0.00     0.014 A 
ATOM     30  C21 <0> d   1       5.643  -5.969  -2.627  0.00  0.00     0.043 A 
ATOM     31  C20 <0> d   1       5.521  -4.641  -2.245  0.00  0.00     0.116 A 
ATOM     32  C19 <0> d   1       5.427  -4.305  -0.902  0.00  0.00     0.043 A 
ATOM     33  F1  <0> d   1       5.492  -3.671  -3.184  0.00  0.00    -0.206 F 
ATOM     34  C18 <0> d   1       5.456  -5.289   0.061  0.00  0.00     0.014 A 
ENDBRANCH   9  28
TORSDOF 6
