REMARK  7 active torsions:
REMARK  status: ('A' for Active; 'I' for Inactive)
REMARK    1  A    between atoms: C2_2  and  O1_3 
REMARK    2  A    between atoms: O1_3  and  C3_4 
REMARK    3  A    between atoms: C5_6  and  O2_7 
REMARK    4  A    between atoms: C6_8  and  C7_9 
REMARK    5  A    between atoms: C8_10  and  O3_16 
REMARK    6  A    between atoms: C10_13  and  N3_15 
REMARK    7  A    between atoms: O3_16  and  C11_17 
ROOT
ATOM      1  C7  <0> d   1       1.190  -6.004  -1.788  0.00  0.00     0.124 A 
ATOM      2  C8  <0> d   1       0.730  -6.884  -0.796  0.00  0.00     0.124 A 
ATOM      3  C9  <0> d   1       0.930  -8.244  -0.980  0.00  0.00     0.176 A 
ATOM      4  N1  <0> d   1       1.543  -8.666  -2.075  0.00  0.00    -0.073 NA
ATOM      5  C10 <0> d   1       1.966  -7.811  -2.994  0.00  0.00     0.720 A 
ATOM      6  N2  <0> d   1       1.792  -6.505  -2.865  0.00  0.00    -0.060 NA
ENDROOT
BRANCH   1   7
ATOM      7  C6  <0> d   1       1.003  -4.543  -1.642  0.00  0.00     0.029 A 
ATOM      8  C5  <0> d   1       2.075  -3.671  -1.869  0.00  0.00     0.081 A 
ATOM      9  C4  <0> d   1       1.893  -2.306  -1.730  0.00  0.00     0.074 A 
ATOM     10  C3  <0> d   1       0.651  -1.804  -1.369  0.00  0.00     0.071 A 
ATOM     11  C18 <0> d   1      -0.412  -2.669  -1.138  0.00  0.00     0.038 A 
ATOM     12  C17 <0> d   1      -0.242  -4.030  -1.278  0.00  0.00     0.019 A 
BRANCH   8  13
ATOM     13  O2  <0> d   1       3.290  -4.164  -2.223  0.00  0.00    -0.360 OA
ATOM     14  H16 <0> d   1       3.867  -4.363  -1.473  0.00  0.00     0.217 HD
ENDBRANCH   8  13
BRANCH  10  15
ATOM     15  O1  <0> d   1       0.475  -0.464  -1.234  0.00  0.00    -0.351 OA
BRANCH  15  16
ATOM     16  C2  <0> d   1      -0.827  -0.016  -0.854  0.00  0.00     0.171 C 
ATOM     17  C1  <0> d   1      -0.832   1.511  -0.753  0.00  0.00     0.034 C 
ENDBRANCH  15  16
ENDBRANCH  10  15
ENDBRANCH   1   7
BRANCH   2  18
ATOM     18  O3  <0> d   1       0.105  -6.415   0.317  0.00  0.00    -0.305 OA
BRANCH  18  19
ATOM     19  C11 <0> d   1      -0.215  -7.306   1.292  0.00  0.00     0.093 A 
ATOM     20  C16 <0> d   1       0.722  -7.644   2.259  0.00  0.00     0.044 A 
ATOM     21  C15 <0> d   1       0.391  -8.546   3.253  0.00  0.00     0.022 A 
ATOM     22 Br1  <0> d   1       2.445  -6.866   2.222  0.00  0.00    -0.048 Br
ATOM     23  C14 <0> d   1      -0.867  -9.119   3.277  0.00  0.00     0.002 A 
ATOM     24  C13 <0> d   1      -1.799  -8.788   2.311  0.00  0.00     0.003 A 
ATOM     25  C12 <0> d   1      -1.476  -7.883   1.319  0.00  0.00     0.039 A 
ENDBRANCH  18  19
ENDBRANCH   2  18
BRANCH   5  26
ATOM     26  N3  <0> d   1       2.603  -8.297  -4.125  0.00  0.00    -0.231 N 
ATOM     27  H8  <0> d   1       2.734  -9.252  -4.236  0.00  0.00     0.174 HD
ATOM     28  H9  <0> d   1       2.918  -7.682  -4.806  0.00  0.00     0.174 HD
ENDBRANCH   5  26
TORSDOF 7
