REMARK  6 active torsions:
REMARK  status: ('A' for Active; 'I' for Inactive)
REMARK    1  A    between atoms: N2_5  and  C6_8 
REMARK    2  A    between atoms: C6_8  and  C7_9 
REMARK    3  A    between atoms: C8_10  and  O5_30 
REMARK    4  A    between atoms: C14_18  and  C16_20 
REMARK    5  A    between atoms: C19_23  and  O4_28 
REMARK    6  A    between atoms: C20_24  and  O3_26 
ROOT
ATOM      1  C7  <0> d   1       2.097  -4.553   1.057  0.00  0.00     0.035 A 
ATOM      2  C8  <0> d   1       3.443  -4.810   0.851  0.00  0.00     0.076 A 
ATOM      3  C9  <0> d   1       4.237  -5.291   1.890  0.00  0.00     0.038 A 
ATOM      4  C10 <0> d   1       3.698  -5.528   3.121  0.00  0.00     0.017 A 
ATOM      5  C11 <0> d   1       2.333  -5.297   3.342  0.00  0.00    -0.000 A 
ATOM      6  C12 <0> d   1       1.536  -4.776   2.304  0.00  0.00     0.100 A 
ATOM      7  O1  <0> d   1       0.234  -4.481   2.534  0.00  0.00    -0.273 OA
ATOM      8  C13 <0> d   1      -0.385  -5.182   3.512  0.00  0.00     0.299 C 
ATOM      9  O2  <0> d   1      -1.542  -5.543   3.392  0.00  0.00    -0.259 OA
ATOM     10  C14 <0> d   1       0.387  -5.495   4.726  0.00  0.00     0.051 C 
ATOM     11  C15 <0> d   1       1.751  -5.570   4.608  0.00  0.00     0.032 C 
ENDROOT
BRANCH  10  12
ATOM     12  C16 <0> d   1      -0.286  -5.730   6.025  0.00  0.00    -0.017 A 
ATOM     13  C21 <0> d   1      -0.987  -4.696   6.646  0.00  0.00     0.052 A 
ATOM     14  C20 <0> d   1      -1.618  -4.922   7.856  0.00  0.00     0.102 A 
ATOM     15  C19 <0> d   1      -1.545  -6.176   8.456  0.00  0.00     0.101 A 
ATOM     16  C18 <0> d   1      -0.844  -7.202   7.840  0.00  0.00     0.040 A 
ATOM     17  C17 <0> d   1      -0.216  -6.984   6.631  0.00  0.00     0.015 A 
BRANCH  14  18
ATOM     18  O3  <0> d   1      -2.307  -3.917   8.461  0.00  0.00    -0.353 OA
ATOM     19  C22 <0> d   1      -2.340  -2.656   7.789  0.00  0.00     0.210 C 
ENDBRANCH  14  18
BRANCH  15  20
ATOM     20  O4  <0> d   1      -2.162  -6.396   9.648  0.00  0.00    -0.353 OA
ATOM     21  C23 <0> d   1      -2.047  -7.706  10.207  0.00  0.00     0.210 C 
ENDBRANCH  15  20
ENDBRANCH  10  12
BRANCH   1  22
ATOM     22  C6  <0> d   1       1.247  -4.025  -0.070  0.00  0.00     0.279 C 
BRANCH  22  23
ATOM     23  N2  <0> d   1       1.282  -2.557  -0.064  0.00  0.00    -0.064 N 
ATOM     24  C3  <0> d   1       0.553  -2.045  -1.232  0.00  0.00     0.265 C 
ATOM     25  C2  <0> d   1       0.605  -0.516  -1.237  0.00  0.00     0.299 C 
ATOM     26  N1  <0> d   1       0.002  -0.004   0.002  0.00  0.00     0.087 N 
ATOM     27  C1  <0> d   1      -0.018   1.465   0.010  0.00  0.00     0.310 C 
ATOM     28  C5  <0> d   1       0.707  -0.528   1.181  0.00  0.00     0.299 C 
ATOM     29  C4  <0> d   1       0.653  -2.057   1.165  0.00  0.00     0.265 C 
ATOM     30  H27 <0> d   1       2.241  -2.244  -0.103  0.00  0.00     0.280 HD
ENDBRANCH  22  23
ENDBRANCH   1  22
BRANCH   2  31
ATOM     31  O5  <0> d   1       3.992  -4.593  -0.371  0.00  0.00    -0.360 OA
ATOM     32  H26 <0> d   1       4.346  -3.700  -0.490  0.00  0.00     0.217 HD
ENDBRANCH   2  31
TORSDOF 6
