REMARK  5 active torsions:
REMARK  status: ('A' for Active; 'I' for Inactive)
REMARK    1  A    between atoms: C6_6  and  C11_13 
REMARK    2  A    between atoms: C11_13  and  N1_14 
REMARK    3  A    between atoms: N2_17  and  C16_20 
REMARK    4  A    between atoms: C16_20  and  C17_21 
REMARK    5  A    between atoms: C17_21  and  O3_22 
ROOT
ATOM      1  C1  <0> d   1      -0.360   1.521   0.002  0.00  0.00     0.048 C 
ATOM      2  C2  <0> d   1      -0.080   0.040  -0.021  0.00  0.00    -0.059 A 
ATOM      3  C3  <0> d   1      -0.072  -0.638  -1.232  0.00  0.00     0.014 A 
ATOM      4  C4  <0> d   1       0.180  -1.981  -1.273  0.00  0.00    -0.048 A 
ATOM      5  C5  <0> d   1       0.432  -2.675  -0.085  0.00  0.00     0.012 A 
ATOM      6  C6  <0> d   1       0.706  -4.116  -0.095  0.00  0.00    -0.011 A 
ATOM      7  C7  <0> d   1       0.942  -4.731   1.091  0.00  0.00     0.092 A 
ATOM      8  C8  <0> d   1       0.919  -3.982   2.287  0.00  0.00     0.288 A 
ATOM      9  O1  <0> d   1       1.133  -4.546   3.345  0.00  0.00    -0.260 OA
ATOM     10  O2  <0> d   1       0.667  -2.663   2.288  0.00  0.00    -0.275 OA
ATOM     11  C9  <0> d   1       0.424  -1.992   1.143  0.00  0.00     0.091 A 
ATOM     12  C10 <0> d   1       0.170  -0.626   1.160  0.00  0.00     0.045 A 
ATOM     13  C18 <0> d   1       0.187  -2.710  -2.592  0.00  0.00     0.049 C 
ENDROOT
BRANCH   6  14
ATOM     14  C11 <0> d   1       0.724  -4.891  -1.387  0.00  0.00     0.312 C 
BRANCH  14  15
ATOM     15  N1  <0> d   1      -0.646  -5.279  -1.745  0.00  0.00     0.096 N 
ATOM     16  C15 <0> d   1      -0.700  -5.827  -3.108  0.00  0.00     0.303 C 
ATOM     17  C14 <0> d   1      -2.153  -6.143  -3.471  0.00  0.00     0.302 C 
ATOM     18  N2  <0> d   1      -2.700  -7.101  -2.500  0.00  0.00     0.093 N 
ATOM     19  C13 <0> d   1      -2.647  -6.553  -1.137  0.00  0.00     0.302 C 
ATOM     20  C12 <0> d   1      -1.194  -6.236  -0.774  0.00  0.00     0.303 C 
BRANCH  18  21
ATOM     21  C16 <0> d   1      -4.071  -7.488  -2.858  0.00  0.00     0.298 C 
BRANCH  21  22
ATOM     22  C17 <0> d   1      -4.053  -8.276  -4.169  0.00  0.00     0.194 C 
BRANCH  22  23
ATOM     23  O3  <0> d   1      -3.350  -9.505  -3.977  0.00  0.00    -0.399 OA
ATOM     24  H21 <0> d   1      -3.299 -10.057  -4.769  0.00  0.00     0.209 HD
ENDBRANCH  22  23
ENDBRANCH  21  22
ENDBRANCH  18  21
ENDBRANCH  14  15
ENDBRANCH   6  14
TORSDOF 5
