REMARK  7 active torsions:
REMARK  status: ('A' for Active; 'I' for Inactive)
REMARK    1  A    between atoms: C2_2  and  N1_3 
REMARK    2  A    between atoms: N2_6  and  C7_9 
REMARK    3  A    between atoms: C7_9  and  C8_10 
REMARK    4  A    between atoms: C9_11  and  O5_32 
REMARK    5  A    between atoms: C15_19  and  C18_22 
REMARK    6  A    between atoms: C20_24  and  O4_30 
REMARK    7  A    between atoms: C23_27  and  O3_28 
ROOT
ATOM      1  C8  <0> d   1      -4.136   2.461   2.384  0.00  0.00     0.035 A 
ATOM      2  C9  <0> d   1      -4.855   2.226   1.223  0.00  0.00     0.076 A 
ATOM      3  C10 <0> d   1      -4.211   1.775   0.073  0.00  0.00     0.038 A 
ATOM      4  C11 <0> d   1      -2.864   1.561   0.075  0.00  0.00     0.017 A 
ATOM      5  C12 <0> d   1      -2.118   1.799   1.239  0.00  0.00     0.006 A 
ATOM      6  C13 <0> d   1      -2.765   2.248   2.405  0.00  0.00     0.101 A 
ATOM      7  O1  <0> d   1      -2.065   2.477   3.537  0.00  0.00    -0.273 OA
ATOM      8  C14 <0> d   1      -0.737   2.280   3.586  0.00  0.00     0.300 A 
ATOM      9  O2  <0> d   1      -0.129   2.493   4.619  0.00  0.00    -0.259 OA
ATOM     10  C15 <0> d   1      -0.018   1.807   2.400  0.00  0.00     0.059 A 
ATOM     11  C16 <0> d   1      -0.718   1.572   1.248  0.00  0.00    -0.032 A 
ATOM     12  C17 <0> d   1      -0.013   1.086   0.008  0.00  0.00     0.050 C 
ENDROOT
BRANCH   1  13
ATOM     13  C7  <0> d   1      -4.843   2.948   3.623  0.00  0.00     0.279 C 
BRANCH  13  14
ATOM     14  N2  <0> d   1      -4.863   4.417   3.629  0.00  0.00    -0.064 N 
ATOM     15  C4  <0> d   1      -5.743   4.927   4.690  0.00  0.00     0.265 C 
ATOM     16  C3  <0> d   1      -5.798   6.455   4.612  0.00  0.00     0.300 C 
ATOM     17  N1  <0> d   1      -4.440   6.999   4.751  0.00  0.00     0.091 N 
ATOM     18  C6  <0> d   1      -3.561   6.489   3.691  0.00  0.00     0.300 C 
ATOM     19  C5  <0> d   1      -3.505   4.962   3.768  0.00  0.00     0.265 C 
ATOM     20  H31 <0> d   1      -5.266   4.753   2.662  0.00  0.00     0.280 HD
BRANCH  17  21
ATOM     21  C2  <0> d   1      -4.460   8.468   4.758  0.00  0.00     0.268 C 
ATOM     22  C1  <0> d   1      -3.079   8.995   5.151  0.00  0.00     0.037 C 
ENDBRANCH  17  21
ENDBRANCH  13  14
ENDBRANCH   1  13
BRANCH   2  23
ATOM     23  O5  <0> d   1      -6.196   2.435   1.207  0.00  0.00    -0.360 OA
ATOM     24  H30 <0> d   1      -6.770   2.250   0.287  0.00  0.00     0.217 HD
ENDBRANCH   2  23
BRANCH  10  25
ATOM     25  C18 <0> d   1       1.447   1.587   2.447  0.00  0.00     0.017 A 
ATOM     26  C23 <0> d   1       1.958   0.338   2.814  0.00  0.00     0.079 A 
ATOM     27  C22 <0> d   1       3.328   0.139   2.857  0.00  0.00     0.040 A 
ATOM     28  C21 <0> d   1       4.189   1.171   2.537  0.00  0.00     0.039 A 
ATOM     29  C20 <0> d   1       3.688   2.413   2.171  0.00  0.00     0.069 A 
ATOM     30  C19 <0> d   1       2.320   2.623   2.120  0.00  0.00     0.052 A 
BRANCH  26  31
ATOM     31  O3  <0> d   1       1.112  -0.678   3.129  0.00  0.00    -0.355 OA
ATOM     32  C24 <0> d   1       1.704  -1.926   3.494  0.00  0.00     0.210 C 
ENDBRANCH  26  31
BRANCH  29  33
ATOM     33  O4  <0> d   1       4.542   3.424   1.858  0.00  0.00    -0.356 OA
ATOM     34  C25 <0> d   1       5.940   3.137   1.926  0.00  0.00     0.210 C 
ENDBRANCH  29  33
ENDBRANCH  10  25
TORSDOF 7
