REMARK  7 active torsions:
REMARK  status: ('A' for Active; 'I' for Inactive)
REMARK    1  A    between atoms: C9_10  and  C10_11 
REMARK    2  A    between atoms: C13_14  and  O3_19 
REMARK    3  A    between atoms: C15_16  and  O2_17 
REMARK    4  A    between atoms: N1_24  and  C21_27 
REMARK    5  A    between atoms: C21_27  and  C22_28 
REMARK    6  A    between atoms: C22_28  and  C23_29 
REMARK    7  A    between atoms: C23_29  and  N2_30 
ROOT
ATOM      1  C1  <0> d   1       0.991   1.397   0.042  0.00  0.00     0.054 C 
ATOM      2  C2  <0> d   1       0.931  -0.108   0.057  0.00  0.00     0.007 A 
ATOM      3  C3  <0> d   1       1.118  -0.820  -1.121  0.00  0.00     0.087 A 
ATOM      4  C4  <0> d   1       1.065  -2.210  -1.119  0.00  0.00     0.005 A 
ATOM      5  C5  <0> d   1       0.825  -2.886   0.047  0.00  0.00     0.030 A 
ATOM      6  C6  <0> d   1       0.635  -2.183   1.236  0.00  0.00     0.052 A 
ATOM      7  C7  <0> d   1       0.694  -0.780   1.248  0.00  0.00     0.099 A 
ATOM      8  O1  <0> d   1       0.490  -0.328   2.505  0.00  0.00    -0.305 OA
ATOM      9  C8  <0> d   1       0.293  -1.343   3.379  0.00  0.00     0.128 A 
ATOM     10  C9  <0> d   1       0.060  -1.221   4.713  0.00  0.00     0.055 C 
ATOM     11  C18 <0> d   1       0.365  -2.600   2.624  0.00  0.00     0.218 A 
ATOM     12  O4  <0> d   1       0.241  -3.735   3.051  0.00  0.00    -0.284 OA
ATOM     13  C19 <0> d   1       1.275  -2.991  -2.391  0.00  0.00     0.316 C 
ATOM     14  N1  <0> d   1       1.102  -2.102  -3.549  0.00  0.00     0.116 N 
ATOM     15  C20 <0> d   1       1.894  -0.875  -3.369  0.00  0.00     0.447 C 
ATOM     16  O5  <0> d   1       1.350  -0.137  -2.272  0.00  0.00    -0.320 OA
ENDROOT
BRANCH  10  17
ATOM     17  C10 <0> d   1       0.161   0.092   5.356  0.00  0.00     0.000 A 
ATOM     18  C15 <0> d   1       0.272   0.186   6.755  0.00  0.00     0.081 A 
ATOM     19  C14 <0> d   1       0.372   1.432   7.351  0.00  0.00     0.074 A 
ATOM     20  C13 <0> d   1       0.351   2.577   6.568  0.00  0.00     0.070 A 
ATOM     21  C12 <0> d   1       0.236   2.481   5.184  0.00  0.00     0.038 A 
ATOM     22  C11 <0> d   1       0.142   1.260   4.582  0.00  0.00     0.017 A 
BRANCH  18  23
ATOM     23  O2  <0> d   1       0.287  -0.937   7.516  0.00  0.00    -0.355 OA
ATOM     24  C16 <0> d   1       0.402  -0.761   8.930  0.00  0.00     0.210 C 
ENDBRANCH  18  23
BRANCH  20  25
ATOM     25  O3  <0> d   1       0.445   3.798   7.154  0.00  0.00    -0.356 OA
ATOM     26  C17 <0> d   1       0.418   4.936   6.291  0.00  0.00     0.210 C 
ENDBRANCH  20  25
ENDBRANCH  10  17
BRANCH  14  27
ATOM     27  C21 <0> d   1       1.466  -2.786  -4.797  0.00  0.00     0.277 C 
BRANCH  27  28
ATOM     28  C22 <0> d   1       1.042  -1.928  -5.991  0.00  0.00     0.058 C 
BRANCH  28  29
ATOM     29  C23 <0> d   1       1.421  -2.640  -7.291  0.00  0.00     0.236 C 
BRANCH  29  30
ATOM     30  N2  <0> d   1       1.014  -1.817  -8.437  0.00  0.00    -0.067 N 
ATOM     31  C27 <0> d   1       1.484  -2.442  -9.681  0.00  0.00     0.261 C 
ATOM     32  C26 <0> d   1       1.058  -1.582 -10.874  0.00  0.00     0.195 C 
ATOM     33  O6  <0> d   1      -0.364  -1.434 -10.865  0.00  0.00    -0.388 OA
ATOM     34  C25 <0> d   1      -0.873  -0.851  -9.662  0.00  0.00     0.195 C 
ATOM     35  C24 <0> d   1      -0.451  -1.709  -8.467  0.00  0.00     0.261 C 
ATOM     36  H33 <0> d   1       1.417  -0.896  -8.350  0.00  0.00     0.280 HD
ENDBRANCH  29  30
ENDBRANCH  28  29
ENDBRANCH  27  28
ENDBRANCH  14  27
TORSDOF 7
