REMARK  4 active torsions:
REMARK  status: ('A' for Active; 'I' for Inactive)
REMARK    1  A    between atoms: O1_2  and  C2_3 
REMARK    2  A    between atoms: C7_8  and  C8_9 
REMARK    3  A    between atoms: C10_11  and  C11_15 
REMARK    4  A    between atoms: C16_20  and  O2_21 
ROOT
ATOM      1  C8  <0> d   1       0.066  -2.829  -0.057  0.00  0.00     0.065 A 
ATOM      2  C9  <0> d   1      -0.634  -3.988  -0.227  0.00  0.00     0.066 A 
ATOM      3  C10 <0> d   1      -1.020  -4.447   1.045  0.00  0.00     0.092 A 
ATOM      4  N1  <0> d   1      -0.570  -3.597   1.944  0.00  0.00    -0.174 NA
ATOM      5  N2  <0> d   1       0.120  -2.574   1.282  0.00  0.00    -0.277 N 
ATOM      6  H1  <0> d   1       0.558  -1.817   1.701  0.00  0.00     0.189 HD
ENDROOT
BRANCH   3   7
ATOM      7  C11 <0> d   1      -1.800  -5.677   1.325  0.00  0.00     0.029 A 
ATOM      8  C16 <0> d   1      -2.119  -6.021   2.642  0.00  0.00     0.078 A 
ATOM      9  C15 <0> d   1      -2.853  -7.169   2.895  0.00  0.00     0.039 A 
ATOM     10  C14 <0> d   1      -3.258  -7.977   1.849  0.00  0.00     0.026 A 
ATOM     11  C13 <0> d   1      -2.939  -7.642   0.544  0.00  0.00     0.035 A 
ATOM     12  C12 <0> d   1      -2.213  -6.497   0.278  0.00  0.00     0.040 A 
ATOM     13 Cl1  <0> d   1      -3.454  -8.663  -0.762  0.00  0.00    -0.084 Cl
BRANCH   8  14
ATOM     14  O2  <0> d   1      -1.714  -5.230   3.670  0.00  0.00    -0.360 OA
ATOM     15  H13 <0> d   1      -2.348  -4.539   3.906  0.00  0.00     0.217 HD
ENDBRANCH   8  14
ENDBRANCH   3   7
BRANCH   1  16
ATOM     16  C7  <0> d   1       0.662  -2.003  -1.129  0.00  0.00     0.025 A 
ATOM     17  C2  <0> d   1       0.606  -0.607  -1.055  0.00  0.00     0.080 A 
ATOM     18  C3  <0> d   1       1.172   0.159  -2.061  0.00  0.00     0.037 A 
ATOM     19  C4  <0> d   1       1.786  -0.456  -3.137  0.00  0.00     0.003 A 
ATOM     20  C5  <0> d   1       1.838  -1.837  -3.217  0.00  0.00     0.001 A 
ATOM     21  C6  <0> d   1       1.278  -2.612  -2.222  0.00  0.00     0.016 A 
BRANCH  17  22
ATOM     22  O1  <0> d   1       0.002  -0.004   0.002  0.00  0.00    -0.355 OA
ATOM     23  C1  <0> d   1      -0.017   1.425   0.010  0.00  0.00     0.210 C 
ENDBRANCH  17  22
ENDBRANCH   1  16
TORSDOF 4
