REMARK  5 active torsions:
REMARK  status: ('A' for Active; 'I' for Inactive)
REMARK    1  A    between atoms: O1_2  and  C2_3 
REMARK    2  A    between atoms: C5_6  and  C9_11 
REMARK    3  A    between atoms: C7_8  and  O2_9 
REMARK    4  A    between atoms: C17_21  and  C18_22 
REMARK    5  A    between atoms: C18_22  and  N1_23 
ROOT
ATOM      1  C9  <0> d   1      -4.014   8.034  -2.294  0.00  0.00     0.048 A 
ATOM      2  C10 <0> d   1      -3.564   6.860  -2.808  0.00  0.00     0.159 A 
ATOM      3  O3  <0> d   1      -3.774   5.686  -2.207  0.00  0.00    -0.320 OA
ATOM      4  C11 <0> d   1      -4.446   5.559  -1.046  0.00  0.00     0.100 A 
ATOM      5  C12 <0> d   1      -4.969   6.693  -0.400  0.00  0.00     0.050 A 
ATOM      6  C13 <0> d   1      -4.762   8.012  -1.026  0.00  0.00     0.197 A 
ATOM      7  O4  <0> d   1      -5.190   9.034  -0.518  0.00  0.00    -0.286 OA
ATOM      8  C14 <0> d   1      -5.664   6.564   0.803  0.00  0.00     0.021 A 
ATOM      9  C15 <0> d   1      -5.837   5.327   1.356  0.00  0.00     0.041 A 
ATOM     10  C16 <0> d   1      -5.329   4.196   0.721  0.00  0.00     0.118 A 
ATOM     11  C17 <0> d   1      -4.631   4.309  -0.470  0.00  0.00     0.039 A 
ATOM     12  O5  <0> d   1      -5.513   2.972   1.278  0.00  0.00    -0.191 OA
ENDROOT
BRANCH   1  13
ATOM     13  C5  <0> d   1      -3.757   9.315  -2.998  0.00  0.00    -0.017 A 
ATOM     14  C4  <0> d   1      -4.805  10.202  -3.238  0.00  0.00     0.015 A 
ATOM     15  C3  <0> d   1      -4.565  11.393  -3.892  0.00  0.00     0.040 A 
ATOM     16  C2  <0> d   1      -3.282  11.711  -4.311  0.00  0.00     0.101 A 
ATOM     17  C7  <0> d   1      -2.231  10.828  -4.074  0.00  0.00     0.102 A 
ATOM     18  C6  <0> d   1      -2.466   9.635  -3.414  0.00  0.00     0.052 A 
BRANCH  16  19
ATOM     19  O1  <0> d   1      -3.049  12.886  -4.955  0.00  0.00    -0.353 OA
ATOM     20  C1  <0> d   1      -4.173  13.744  -5.164  0.00  0.00     0.210 C 
ENDBRANCH  16  19
BRANCH  17  21
ATOM     21  O2  <0> d   1      -0.974  11.142  -4.486  0.00  0.00    -0.353 OA
ATOM     22  C8  <0> d   1       0.056  10.190  -4.210  0.00  0.00     0.210 C 
ENDBRANCH  17  21
ENDBRANCH   1  13
BRANCH  11  23
ATOM     23  C18 <0> d   1      -4.080   3.078  -1.143  0.00  0.00     0.279 C 
BRANCH  23  24
ATOM     24  N1  <0> d   1      -2.716   2.825  -0.660  0.00  0.00    -0.067 N 
ATOM     25  C24 <0> d   1      -2.623   3.045   0.717  0.00  0.00     0.235 C 
ATOM     26  C23 <0> d   1      -1.159   3.006   1.206  0.00  0.00     0.028 C 
ATOM     27  C22 <0> d   1      -0.710   1.571   1.295  0.00  0.00     0.002 C 
ATOM     28  C21 <0> d   1      -0.013   1.086   0.008  0.00  0.00     0.002 C 
ATOM     29  C20 <0> d   1      -0.733   1.583  -1.257  0.00  0.00     0.028 C 
ATOM     30  C19 <0> d   1      -2.232   1.506  -1.110  0.00  0.00     0.235 C 
ATOM     31  H27 <0> d   1      -2.017   3.578  -1.055  0.00  0.00     0.280 HD
ENDBRANCH  23  24
ENDBRANCH  11  23
TORSDOF 5
