REMARK  8 active torsions:
REMARK  status: ('A' for Active; 'I' for Inactive)
REMARK    1  A    between atoms: N2_5  and  C6_8 
REMARK    2  A    between atoms: C6_8  and  C7_9 
REMARK    3  A    between atoms: C8_10  and  O6_35 
REMARK    4  A    between atoms: C13_16  and  C24_31 
REMARK    5  A    between atoms: C14_17  and  O3_20 
REMARK    6  A    between atoms: O3_20  and  C16_21 
REMARK    7  A    between atoms: C19_24  and  C22_27 
REMARK    8  A    between atoms: C22_27  and  O5_29 
ROOT
ATOM      1  C7  <0> d   1       1.797  -4.696   0.824  0.00  0.00     0.035 A 
ATOM      2  C8  <0> d   1       3.113  -4.959   0.480  0.00  0.00     0.076 A 
ATOM      3  C9  <0> d   1       4.016  -5.422   1.433  0.00  0.00     0.038 A 
ATOM      4  C10 <0> d   1       3.616  -5.624   2.724  0.00  0.00     0.021 A 
ATOM      5  C11 <0> d   1       2.294  -5.364   3.087  0.00  0.00     0.052 A 
ATOM      6  C12 <0> d   1       1.376  -4.891   2.132  0.00  0.00     0.101 A 
ATOM      7  O1  <0> d   1       0.103  -4.638   2.495  0.00  0.00    -0.301 OA
ATOM      8  C13 <0> d   1      -0.335  -4.816   3.748  0.00  0.00     0.197 A 
ATOM      9  C14 <0> d   1       0.460  -5.259   4.742  0.00  0.00     0.165 A 
ATOM     10  C15 <0> d   1       1.822  -5.570   4.467  0.00  0.00     0.221 A 
ATOM     11  O2  <0> d   1       2.571  -5.974   5.341  0.00  0.00    -0.284 OA
ENDROOT
BRANCH   9  12
ATOM     12  O3  <0> d   1      -0.039  -5.420   5.999  0.00  0.00    -0.304 OA
BRANCH  12  13
ATOM     13  C16 <0> d   1       0.427  -4.606   6.978  0.00  0.00     0.076 A 
ATOM     14  C21 <0> d   1       0.032  -4.810   8.296  0.00  0.00     0.038 A 
ATOM     15  C20 <0> d   1       0.506  -3.989   9.294  0.00  0.00     0.020 A 
ATOM     16  C19 <0> d   1       1.378  -2.942   8.979  0.00  0.00     0.039 A 
ATOM     17  C18 <0> d   1       1.769  -2.737   7.653  0.00  0.00     0.020 A 
ATOM     18  C17 <0> d   1       1.294  -3.566   6.661  0.00  0.00     0.038 A 
BRANCH  16  19
ATOM     19  C22 <0> d   1       1.885  -2.057  10.044  0.00  0.00     0.292 C 
ATOM     20  O4  <0> d   1       2.643  -1.148   9.769  0.00  0.00    -0.259 OA
BRANCH  19  21
ATOM     21  O5  <0> d   1       1.507  -2.256  11.322  0.00  0.00    -0.323 OA
ATOM     22  C23 <0> d   1       2.037  -1.361  12.302  0.00  0.00     0.213 C 
ENDBRANCH  19  21
ENDBRANCH  16  19
ENDBRANCH  12  13
ENDBRANCH   9  12
BRANCH   8  23
ATOM     23  C24 <0> d   1      -1.777  -4.507   4.060  0.00  0.00     0.442 C 
ATOM     24  F1  <0> d   1      -2.061  -4.885   5.377  0.00  0.00    -0.164 F 
ATOM     25  F2  <0> d   1      -2.003  -3.135   3.910  0.00  0.00    -0.164 F 
ATOM     26  F3  <0> d   1      -2.606  -5.215   3.183  0.00  0.00    -0.164 F 
ENDBRANCH   8  23
BRANCH   1  27
ATOM     27  C6  <0> d   1       0.828  -4.196  -0.216  0.00  0.00     0.279 C 
BRANCH  27  28
ATOM     28  N2  <0> d   1       0.860  -2.728  -0.248  0.00  0.00    -0.064 N 
ATOM     29  C3  <0> d   1       0.007  -2.244  -1.342  0.00  0.00     0.265 C 
ATOM     30  C2  <0> d   1       0.054  -0.715  -1.388  0.00  0.00     0.299 C 
ATOM     31  N1  <0> d   1      -0.412  -0.174  -0.103  0.00  0.00     0.087 N 
ATOM     32  C1  <0> d   1      -0.435   1.294  -0.127  0.00  0.00     0.310 C 
ATOM     33  C5  <0> d   1       0.418  -0.670   1.004  0.00  0.00     0.299 C 
ATOM     34  C4  <0> d   1       0.367  -2.199   1.030  0.00  0.00     0.265 C 
ATOM     35  H24 <0> d   1       1.808  -2.415  -0.398  0.00  0.00     0.280 HD
ENDBRANCH  27  28
ENDBRANCH   1  27
BRANCH   2  36
ATOM     36  O6  <0> d   1       3.525  -4.763  -0.799  0.00  0.00    -0.360 OA
ATOM     37  H23 <0> d   1       3.863  -3.873  -0.971  0.00  0.00     0.217 HD
ENDBRANCH   2  36
TORSDOF 8
