REMARK  9 active torsions:
REMARK  status: ('A' for Active; 'I' for Inactive)
REMARK    1  A    between atoms: C2_2  and  C4_4 
REMARK    2  A    between atoms: C4_4  and  O1_5 
REMARK    3  A    between atoms: O1_5  and  C5_6 
REMARK    4  A    between atoms: C7_8  and  O2_9 
REMARK    5  A    between atoms: C8_10  and  C9_11 
REMARK    6  A    between atoms: C10_12  and  O3_18 
REMARK    7  A    between atoms: C12_15  and  N3_17 
REMARK    8  A    between atoms: O3_18  and  C13_19 
REMARK    9  A    between atoms: C16_22  and  O4_25 
ROOT
ATOM      1  C9  <0> d   1      -5.427  -5.648   0.020  0.00  0.00     0.124 A 
ATOM      2  C10 <0> d   1      -6.730  -5.138   0.115  0.00  0.00     0.124 A 
ATOM      3  C11 <0> d   1      -7.790  -6.032   0.083  0.00  0.00     0.176 A 
ATOM      4  N1  <0> d   1      -7.541  -7.328  -0.034  0.00  0.00    -0.073 NA
ATOM      5  C12 <0> d   1      -6.299  -7.779  -0.121  0.00  0.00     0.720 A 
ATOM      6  N2  <0> d   1      -5.257  -6.963  -0.101  0.00  0.00    -0.060 NA
ENDROOT
BRANCH   1   7
ATOM      7  C8  <0> d   1      -4.260  -4.738   0.049  0.00  0.00     0.029 A 
ATOM      8  C7  <0> d   1      -3.174  -5.014   0.888  0.00  0.00     0.081 A 
ATOM      9  C6  <0> d   1      -2.086  -4.159   0.910  0.00  0.00     0.074 A 
ATOM     10  C5  <0> d   1      -2.073  -3.032   0.102  0.00  0.00     0.071 A 
ATOM     11  C21 <0> d   1      -3.152  -2.753  -0.728  0.00  0.00     0.038 A 
ATOM     12  C20 <0> d   1      -4.238  -3.602  -0.761  0.00  0.00     0.019 A 
BRANCH   8  13
ATOM     13  O2  <0> d   1      -3.188  -6.118   1.679  0.00  0.00    -0.360 OA
ATOM     14  H21 <0> d   1      -3.573  -5.970   2.554  0.00  0.00     0.217 HD
ENDBRANCH   8  13
BRANCH  10  15
ATOM     15  O1  <0> d   1      -1.004  -2.194   0.125  0.00  0.00    -0.347 OA
BRANCH  15  16
ATOM     16  C4  <0> d   1      -1.058  -1.048  -0.727  0.00  0.00     0.208 C 
BRANCH  16  17
ATOM     17  C2  <0> d   1       0.205  -0.243  -0.567  0.00  0.00    -0.069 C 
ATOM     18  C1  <0> d   1       0.397   1.023  -1.362  0.00  0.00     0.044 C 
ATOM     19  C3  <0> d   1       1.137  -0.643   0.263  0.00  0.00     0.016 C 
ENDBRANCH  16  17
ENDBRANCH  15  16
ENDBRANCH  10  15
ENDBRANCH   1   7
BRANCH   2  20
ATOM     20  O3  <0> d   1      -6.949  -3.802   0.235  0.00  0.00    -0.307 OA
BRANCH  20  21
ATOM     21  C13 <0> d   1      -8.225  -3.380   0.442  0.00  0.00     0.076 A 
ATOM     22  C18 <0> d   1      -8.945  -2.810  -0.598  0.00  0.00     0.040 A 
ATOM     23  C17 <0> d   1     -10.242  -2.386  -0.389  0.00  0.00     0.039 A 
ATOM     24  C16 <0> d   1     -10.822  -2.520   0.864  0.00  0.00     0.068 A 
ATOM     25  C15 <0> d   1     -10.101  -3.085   1.905  0.00  0.00     0.039 A 
ATOM     26  C14 <0> d   1      -8.805  -3.514   1.695  0.00  0.00     0.040 A 
BRANCH  24  27
ATOM     27  O4  <0> d   1     -12.098  -2.098   1.071  0.00  0.00    -0.356 OA
ATOM     28  C19 <0> d   1     -12.782  -1.526  -0.045  0.00  0.00     0.210 C 
ENDBRANCH  24  27
ENDBRANCH  20  21
ENDBRANCH   2  20
BRANCH   5  29
ATOM     29  N3  <0> d   1      -6.084  -9.143  -0.243  0.00  0.00    -0.231 N 
ATOM     30  H10 <0> d   1      -6.838  -9.753  -0.263  0.00  0.00     0.174 HD
ATOM     31  H11 <0> d   1      -5.180  -9.488  -0.308  0.00  0.00     0.174 HD
ENDBRANCH   5  29
TORSDOF 9
