REMARK  8 active torsions:
REMARK  status: ('A' for Active; 'I' for Inactive)
REMARK    1  A    between atoms: C2_2  and  O1_3 
REMARK    2  A    between atoms: O1_3  and  C3_4 
REMARK    3  A    between atoms: C3_4  and  C4_6 
REMARK    4  A    between atoms: C5_7  and  C19_26 
REMARK    5  A    between atoms: C10_13  and  O5_25 
REMARK    6  A    between atoms: C11_14  and  C13_17 
REMARK    7  A    between atoms: C13_17  and  N1_18 
REMARK    8  A    between atoms: C24_31  and  O6_32 
ROOT
ATOM      1  C4  <0> d   1       1.454  -2.347  -2.524  0.00  0.00     0.166 C 
ATOM      2  C5  <0> d   1       1.542  -3.716  -2.668  0.00  0.00     0.068 C 
ATOM      3  C6  <0> d   1       2.243  -4.243  -3.864  0.00  0.00     0.199 C 
ATOM      4  O3  <0> d   1       2.173  -5.416  -4.187  0.00  0.00    -0.286 OA
ATOM      5  C7  <0> d   1       3.028  -3.265  -4.638  0.00  0.00     0.050 A 
ATOM      6  C8  <0> d   1       3.932  -3.676  -5.619  0.00  0.00     0.021 A 
ATOM      7  C9  <0> d   1       4.647  -2.744  -6.314  0.00  0.00     0.038 A 
ATOM      8  C10 <0> d   1       4.480  -1.386  -6.045  0.00  0.00     0.076 A 
ATOM      9  C11 <0> d   1       3.585  -0.963  -5.077  0.00  0.00     0.038 A 
ATOM     10  C12 <0> d   1       2.845  -1.897  -4.363  0.00  0.00     0.101 A 
ATOM     11  O4  <0> d   1       1.957  -1.497  -3.432  0.00  0.00    -0.302 OA
ENDROOT
BRANCH   2  12
ATOM     12  C19 <0> d   1       0.959  -4.628  -1.662  0.00  0.00     0.014 A 
ATOM     13  C24 <0> d   1       1.789  -5.305  -0.760  0.00  0.00     0.079 A 
ATOM     14  C23 <0> d   1       1.232  -6.152   0.184  0.00  0.00     0.037 A 
ATOM     15  C22 <0> d   1      -0.137  -6.338   0.226  0.00  0.00     0.003 A 
ATOM     16  C21 <0> d   1      -0.961  -5.675  -0.668  0.00  0.00     0.001 A 
ATOM     17  C20 <0> d   1      -0.422  -4.823  -1.609  0.00  0.00     0.015 A 
BRANCH  13  18
ATOM     18  O6  <0> d   1       3.135  -5.127  -0.806  0.00  0.00    -0.355 OA
ATOM     19  C25 <0> d   1       3.918  -5.850   0.145  0.00  0.00     0.210 C 
ENDBRANCH  13  18
ENDBRANCH   2  12
BRANCH   1  20
ATOM     20  C3  <0> d   1       0.776  -1.799  -1.335  0.00  0.00     0.318 C 
ATOM     21  O2  <0> d   1       0.312  -2.550  -0.500  0.00  0.00    -0.257 OA
BRANCH  20  22
ATOM     22  O1  <0> d   1       0.671  -0.465  -1.174  0.00  0.00    -0.316 OA
BRANCH  22  23
ATOM     23  C2  <0> d   1       0.002  -0.004   0.002  0.00  0.00     0.175 C 
ATOM     24  C1  <0> d   1      -0.019   1.526   0.010  0.00  0.00     0.034 C 
ENDBRANCH  22  23
ENDBRANCH  20  22
ENDBRANCH   1  20
BRANCH   9  25
ATOM     25  C13 <0> d   1       3.416   0.508  -4.797  0.00  0.00     0.317 C 
BRANCH  25  26
ATOM     26  N1  <0> d   1       2.359   1.052  -5.661  0.00  0.00     0.096 N 
ATOM     27  C17 <0> d   1       2.000   2.418  -5.257  0.00  0.00     0.303 C 
ATOM     28  C16 <0> d   1       0.845   2.918  -6.127  0.00  0.00     0.302 C 
ATOM     29  N2  <0> d   1       1.247   2.878  -7.540  0.00  0.00     0.087 N 
ATOM     30  C15 <0> d   1       1.606   1.512  -7.944  0.00  0.00     0.302 C 
ATOM     31  C18 <0> d   1       0.190   3.422  -8.404  0.00  0.00     0.310 C 
ATOM     32  C14 <0> d   1       2.761   1.012  -7.074  0.00  0.00     0.303 C 
ENDBRANCH  25  26
ENDBRANCH   9  25
BRANCH   8  33
ATOM     33  O5  <0> d   1       5.201  -0.470  -6.740  0.00  0.00    -0.360 OA
ATOM     34  H21 <0> d   1       4.771  -0.163  -7.550  0.00  0.00     0.217 HD
ENDBRANCH   8  33
TORSDOF 8
