REMARK  3 active torsions:
REMARK  status: ('A' for Active; 'I' for Inactive)
REMARK    1  A    between atoms: C7_7  and  O1_8 
REMARK    2  A    between atoms: C8_9  and  C11_14 
REMARK    3  A    between atoms: C11_14  and  N1_15 
ROOT
ATOM      1  C1  <0> d   1       4.111   6.441   4.879  0.00  0.00     0.051 C 
ATOM      2  C2  <0> d   1       2.898   5.606   4.556  0.00  0.00    -0.026 A 
ATOM      3  C3  <0> d   1       2.583   4.525   5.352  0.00  0.00     0.047 A 
ATOM      4  C4  <0> d   1       1.467   3.750   5.062  0.00  0.00     0.091 A 
ATOM      5  C5  <0> d   1       0.665   4.078   3.954  0.00  0.00     0.009 A 
ATOM      6  C6  <0> d   1       0.994   5.176   3.154  0.00  0.00     0.052 A 
ATOM      7  C7  <0> d   1       2.107   5.933   3.459  0.00  0.00     0.072 A 
ATOM      8  C8  <0> d   1      -0.510   3.252   3.658  0.00  0.00    -0.014 A 
ATOM      9  C9  <0> d   1      -0.779   2.203   4.476  0.00  0.00     0.092 A 
ATOM     10  C10 <0> d   1       0.073   1.929   5.568  0.00  0.00     0.288 A 
ATOM     11  O2  <0> d   1      -0.176   0.981   6.291  0.00  0.00    -0.260 OA
ATOM     12  O3  <0> d   1       1.147   2.688   5.833  0.00  0.00    -0.275 OA
ENDROOT
BRANCH   8  13
ATOM     13  C11 <0> d   1      -1.399   3.565   2.482  0.00  0.00     0.274 C 
BRANCH  13  14
ATOM     14  N1  <0> d   1      -0.783   3.048   1.252  0.00  0.00    -0.064 N 
ATOM     15  C15 <0> d   1      -1.495   3.536   0.062  0.00  0.00     0.265 C 
ATOM     16  C14 <0> d   1      -0.777   3.042  -1.196  0.00  0.00     0.299 C 
ATOM     17  N2  <0> d   1      -0.724   1.573  -1.182  0.00  0.00     0.087 N 
ATOM     18  C13 <0> d   1      -0.013   1.086   0.008  0.00  0.00     0.299 C 
ATOM     19  C16 <0> d   1      -0.109   1.057  -2.412  0.00  0.00     0.310 C 
ATOM     20  C12 <0> d   1      -0.730   1.580   1.267  0.00  0.00     0.265 C 
ATOM     21  H21 <0> d   1       0.249   3.425   1.208  0.00  0.00     0.280 HD
ENDBRANCH  13  14
ENDBRANCH   8  13
BRANCH   7  22
ATOM     22  O1  <0> d   1       2.432   7.003   2.685  0.00  0.00    -0.360 OA
ATOM     23  H6  <0> d   1       1.808   7.264   1.817  0.00  0.00     0.217 HD
ENDBRANCH   7  22
TORSDOF 3
