REMARK  6 active torsions:
REMARK  status: ('A' for Active; 'I' for Inactive)
REMARK    1  A    between atoms: C2_2  and  N1_3 
REMARK    2  A    between atoms: N2_6  and  C7_9 
REMARK    3  A    between atoms: C7_9  and  C8_10 
REMARK    4  A    between atoms: C15_18  and  C16_19 
REMARK    5  A    between atoms: C17_20  and  C18_21 
REMARK    6  A    between atoms: C23_26  and  O2_27 
ROOT
ATOM      1  C8  <0> d   1       3.239  -3.972  -3.942  0.00  0.00     0.039 A 
ATOM      2  C9  <0> d   1       4.265  -4.729  -3.398  0.00  0.00     0.118 A 
ATOM      3  C10 <0> d   1       4.234  -6.119  -3.470  0.00  0.00     0.041 A 
ATOM      4  C11 <0> d   1       3.188  -6.753  -4.079  0.00  0.00     0.021 A 
ATOM      5  C12 <0> d   1       2.149  -6.005  -4.630  0.00  0.00     0.051 A 
ATOM      6  C13 <0> d   1       2.167  -4.602  -4.559  0.00  0.00     0.101 A 
ATOM      7  O1  <0> d   1       1.054  -4.121  -5.154  0.00  0.00    -0.305 OA
ATOM      8  C14 <0> d   1       0.273  -5.120  -5.625  0.00  0.00     0.127 A 
ATOM      9  C15 <0> d   1      -0.917  -4.964  -6.276  0.00  0.00     0.041 C 
ATOM     10  C25 <0> d   1       0.907  -6.361  -5.338  0.00  0.00     0.218 A 
ATOM     11  O3  <0> d   1       0.502  -7.479  -5.608  0.00  0.00    -0.284 OA
ATOM     12  O4  <0> d   1       5.309  -4.109  -2.791  0.00  0.00    -0.191 OA
ENDROOT
BRANCH   9  13
ATOM     13  C16 <0> d   1      -1.428  -3.674  -6.507  0.00  0.00     0.004 C 
ATOM     14  C17 <0> d   1      -2.610  -3.519  -7.154  0.00  0.00     0.014 C 
BRANCH  14  15
ATOM     15  C18 <0> d   1      -3.143  -2.173  -7.396  0.00  0.00    -0.003 A 
ATOM     16  C23 <0> d   1      -4.367  -2.006  -8.065  0.00  0.00     0.078 A 
ATOM     17  C22 <0> d   1      -4.863  -0.731  -8.282  0.00  0.00     0.037 A 
ATOM     18  C21 <0> d   1      -4.150   0.372  -7.851  0.00  0.00     0.003 A 
ATOM     19  C20 <0> d   1      -2.940   0.214  -7.196  0.00  0.00     0.001 A 
ATOM     20  C19 <0> d   1      -2.433  -1.046  -6.965  0.00  0.00     0.014 A 
BRANCH  16  21
ATOM     21  O2  <0> d   1      -5.063  -3.090  -8.493  0.00  0.00    -0.355 OA
ATOM     22  C24 <0> d   1      -6.299  -2.843  -9.166  0.00  0.00     0.210 C 
ENDBRANCH  16  21
ENDBRANCH  14  15
ENDBRANCH   9  13
BRANCH   1  23
ATOM     23  C7  <0> d   1       3.284  -2.468  -3.858  0.00  0.00     0.279 C 
BRANCH  23  24
ATOM     24  N2  <0> d   1       2.630  -2.027  -2.620  0.00  0.00    -0.064 N 
ATOM     25  C4  <0> d   1       2.779  -0.572  -2.479  0.00  0.00     0.265 C 
ATOM     26  C3  <0> d   1       2.114  -0.114  -1.179  0.00  0.00     0.300 C 
ATOM     27  N1  <0> d   1       0.690  -0.478  -1.207  0.00  0.00     0.091 N 
ATOM     28  C6  <0> d   1       0.525  -1.929  -1.372  0.00  0.00     0.300 C 
ATOM     29  C5  <0> d   1       1.203  -2.372  -2.670  0.00  0.00     0.265 C 
ATOM     30  H28 <0> d   1       3.059  -2.486  -1.831  0.00  0.00     0.280 HD
BRANCH  27  31
ATOM     31  C2  <0> d   1       0.002  -0.004   0.002  0.00  0.00     0.268 C 
ATOM     32  C1  <0> d   1      -0.019   1.526   0.010  0.00  0.00     0.037 C 
ENDBRANCH  27  31
ENDBRANCH  23  24
ENDBRANCH   1  23
TORSDOF 6
