REMARK  6 active torsions:
REMARK  status: ('A' for Active; 'I' for Inactive)
REMARK    1  A    between atoms: C3_3  and  O3_29 
REMARK    2  A    between atoms: C10_12  and  C11_13 
REMARK    3  A    between atoms: C11_13  and  N1_14 
REMARK    4  A    between atoms: N2_17  and  C16_20 
REMARK    5  A    between atoms: C16_20  and  C17_21 
REMARK    6  A    between atoms: C18_22  and  C19_23 
ROOT
ATOM      1  N1  <0> d   1      -1.303  -4.861   2.359  0.00  0.00    -0.064 N 
ATOM      2  C12 <0> d   1      -2.066  -4.461   3.549  0.00  0.00     0.265 C 
ATOM      3  C13 <0> d   1      -3.503  -4.976   3.429  0.00  0.00     0.300 C 
ATOM      4  N2  <0> d   1      -3.487  -6.440   3.305  0.00  0.00     0.095 N 
ATOM      5  C14 <0> d   1      -2.705  -6.856   2.133  0.00  0.00     0.300 C 
ATOM      6  C15 <0> d   1      -1.275  -6.326   2.262  0.00  0.00     0.265 C 
ATOM      7  H27 <0> d   1      -1.740  -4.478   1.535  0.00  0.00     0.280 HD
ENDROOT
BRANCH   1   8
ATOM      8  C11 <0> d   1       0.071  -4.351   2.466  0.00  0.00     0.274 C 
BRANCH   8   9
ATOM      9  C10 <0> d   1       0.051  -2.845   2.441  0.00  0.00    -0.014 A 
ATOM     10  C6  <0> d   1       0.036  -2.113   1.173  0.00  0.00     0.007 A 
ATOM     11  C5  <0> d   1       0.039  -2.792  -0.051  0.00  0.00     0.017 A 
ATOM     12  C7  <0> d   1       0.023  -0.706   1.198  0.00  0.00     0.099 A 
ATOM     13  C4  <0> d   1       0.024  -2.086  -1.219  0.00  0.00     0.038 A 
ATOM     14  C3  <0> d   1       0.006  -0.693  -1.200  0.00  0.00     0.074 A 
ATOM     15  C2  <0> d   1       0.002  -0.004   0.002  0.00  0.00     0.006 A 
ATOM     16  C1  <0> d   1      -0.018   1.503   0.010  0.00  0.00     0.054 C 
ATOM     17  O1  <0> d   1       0.025  -0.054   2.380  0.00  0.00    -0.274 OA
ATOM     18  C8  <0> d   1       0.045  -0.719   3.546  0.00  0.00     0.288 A 
ATOM     19  O2  <0> d   1       0.046  -0.089   4.588  0.00  0.00    -0.260 OA
ATOM     20  C9  <0> d   1       0.065  -2.128   3.595  0.00  0.00     0.092 A 
BRANCH  14  21
ATOM     21  O3  <0> d   1      -0.009  -0.004  -2.370  0.00  0.00    -0.360 OA
ATOM     22  H26 <0> d   1       0.870   0.207  -2.713  0.00  0.00     0.217 HD
ENDBRANCH  14  21
ENDBRANCH   8   9
ENDBRANCH   1   8
BRANCH   4  23
ATOM     23  C16 <0> d   1      -4.853  -6.978   3.246  0.00  0.00     0.300 C 
BRANCH  23  24
ATOM     24  C17 <0> d   1      -4.807  -8.479   3.366  0.00  0.00     0.004 C 
ATOM     25  C18 <0> d   1      -5.513  -9.090   4.307  0.00  0.00     0.009 C 
BRANCH  25  26
ATOM     26  C19 <0> d   1      -5.468 -10.563   4.426  0.00  0.00    -0.036 A 
ATOM     27  C24 <0> d   1      -6.210 -11.209   5.415  0.00  0.00     0.011 A 
ATOM     28  C23 <0> d   1      -6.169 -12.585   5.516  0.00  0.00     0.001 A 
ATOM     29  C22 <0> d   1      -5.384 -13.322   4.647  0.00  0.00     0.000 A 
ATOM     30  C21 <0> d   1      -4.641 -12.687   3.668  0.00  0.00     0.001 A 
ATOM     31  C20 <0> d   1      -4.679 -11.312   3.552  0.00  0.00     0.011 A 
ENDBRANCH  25  26
ENDBRANCH  23  24
ENDBRANCH   4  23
TORSDOF 6
