REMARK  6 active torsions:
REMARK  status: ('A' for Active; 'I' for Inactive)
REMARK    1  A    between atoms: C4_4  and  C7_7 
REMARK    2  A    between atoms: C7_7  and  N1_8 
REMARK    3  A    between atoms: N2_11  and  C12_14 
REMARK    4  A    between atoms: C12_14  and  C13_15 
REMARK    5  A    between atoms: C14_16  and  O3_32 
REMARK    6  A    between atoms: C20_24  and  C22_26 
ROOT
ATOM      1  C13 <0> d   1       6.832  -3.532   4.872  0.00  0.00     0.038 A 
ATOM      2  C14 <0> d   1       6.853  -4.918   4.859  0.00  0.00     0.076 A 
ATOM      3  C15 <0> d   1       8.065  -5.606   4.837  0.00  0.00     0.038 A 
ATOM      4  C16 <0> d   1       9.247  -4.925   4.841  0.00  0.00     0.017 A 
ATOM      5  C17 <0> d   1       9.247  -3.523   4.879  0.00  0.00    -0.000 A 
ATOM      6  C18 <0> d   1       8.024  -2.825   4.863  0.00  0.00     0.100 A 
ATOM      7  O1  <0> d   1       8.016  -1.470   4.824  0.00  0.00    -0.273 OA
ATOM      8  C19 <0> d   1       9.090  -0.838   5.351  0.00  0.00     0.301 C 
ATOM      9  O2  <0> d   1       8.964   0.193   5.986  0.00  0.00    -0.259 OA
ATOM     10  C20 <0> d   1      10.416  -1.438   5.130  0.00  0.00     0.069 C 
ATOM     11  C21 <0> d   1      10.468  -2.803   4.918  0.00  0.00     0.034 C 
ENDROOT
BRANCH   1  12
ATOM     12  C12 <0> d   1       5.517  -2.796   4.890  0.00  0.00     0.317 C 
BRANCH  12  13
ATOM     13  N2  <0> d   1       5.075  -2.550   3.510  0.00  0.00     0.096 N 
ATOM     14  C9  <0> d   1       3.693  -2.050   3.481  0.00  0.00     0.303 C 
ATOM     15  C8  <0> d   1       3.245  -1.883   2.028  0.00  0.00     0.303 C 
ATOM     16  N1  <0> d   1       4.153  -0.953   1.342  0.00  0.00     0.096 N 
ATOM     17  C11 <0> d   1       5.535  -1.453   1.371  0.00  0.00     0.303 C 
ATOM     18  C10 <0> d   1       5.983  -1.620   2.825  0.00  0.00     0.303 C 
BRANCH  16  19
ATOM     19  C7  <0> d   1       3.711  -0.707  -0.038  0.00  0.00     0.311 C 
BRANCH  19  20
ATOM     20  C4  <0> d   1       2.396   0.029  -0.020  0.00  0.00    -0.030 A 
ATOM     21  C3  <0> d   1       2.377   1.411  -0.013  0.00  0.00     0.009 A 
ATOM     22  C2  <0> d   1       1.171   2.086   0.002  0.00  0.00     0.001 A 
ATOM     23  C1  <0> d   1      -0.017   1.378   0.010  0.00  0.00     0.000 A 
ATOM     24  C6  <0> d   1       0.002  -0.004   0.002  0.00  0.00     0.001 A 
ATOM     25  C5  <0> d   1       1.208  -0.679  -0.012  0.00  0.00     0.009 A 
ENDBRANCH  19  20
ENDBRANCH  16  19
ENDBRANCH  12  13
ENDBRANCH   1  12
BRANCH   2  26
ATOM     26  O3  <0> d   1       5.686  -5.610   4.869  0.00  0.00    -0.360 OA
ATOM     27  H25 <0> d   1       5.335  -5.802   3.989  0.00  0.00     0.217 HD
ENDBRANCH   2  26
BRANCH  10  28
ATOM     28  C22 <0> d   1      11.645  -0.614   5.147  0.00  0.00     0.072 A 
ATOM     29  N3  <0> d   1      12.825  -1.187   4.944  0.00  0.00    -0.260 NA
ATOM     30  C26 <0> d   1      13.942  -0.487   4.946  0.00  0.00     0.117 A 
ATOM     31  C25 <0> d   1      13.926   0.876   5.172  0.00  0.00     0.019 A 
ATOM     32  C24 <0> d   1      12.713   1.515   5.394  0.00  0.00     0.004 A 
ATOM     33  C23 <0> d   1      11.555   0.759   5.381  0.00  0.00     0.032 A 
ENDBRANCH  10  28
TORSDOF 6
