REMARK  4 active torsions:
REMARK  status: ('A' for Active; 'I' for Inactive)
REMARK    1  A    between atoms: C4_4  and  C7_7 
REMARK    2  A    between atoms: C8_8  and  C9_9 
REMARK    3  A    between atoms: C16_17  and  C18_20 
REMARK    4  A    between atoms: C18_20  and  N1_21 
ROOT
ATOM      1  C9  <0> d   1       2.470  -4.215  -0.043  0.00  0.00     0.041 C 
ATOM      2  C10 <0> d   1       3.665  -4.873  -0.058  0.00  0.00     0.127 A 
ATOM      3  C11 <0> d   1       3.852  -6.329  -0.061  0.00  0.00     0.218 A 
ATOM      4  O1  <0> d   1       2.991  -7.192  -0.051  0.00  0.00    -0.284 OA
ATOM      5  C12 <0> d   1       5.314  -6.514  -0.083  0.00  0.00     0.051 A 
ATOM      6  C13 <0> d   1       6.134  -7.644  -0.097  0.00  0.00     0.021 A 
ATOM      7  C14 <0> d   1       7.492  -7.499  -0.110  0.00  0.00     0.041 A 
ATOM      8  C15 <0> d   1       8.060  -6.228  -0.108  0.00  0.00     0.118 A 
ATOM      9  C16 <0> d   1       7.259  -5.098  -0.094  0.00  0.00     0.041 A 
ATOM     10  C17 <0> d   1       5.876  -5.227  -0.081  0.00  0.00     0.101 A 
ATOM     11  O2  <0> d   1       4.892  -4.302  -0.067  0.00  0.00    -0.305 OA
ATOM     12  O4  <0> d   1       9.411  -6.095  -0.120  0.00  0.00    -0.191 OA
ENDROOT
BRANCH   1  13
ATOM     13  C8  <0> d   1       2.442  -2.807  -0.036  0.00  0.00     0.004 C 
ATOM     14  C7  <0> d   1       1.255  -2.153  -0.021  0.00  0.00     0.011 C 
BRANCH  14  15
ATOM     15  C4  <0> d   1       1.226  -0.683  -0.013  0.00  0.00    -0.036 A 
ATOM     16  C3  <0> d   1       0.002  -0.004   0.002  0.00  0.00     0.011 A 
ATOM     17  C2  <0> d   1      -0.017   1.374   0.010  0.00  0.00     0.001 A 
ATOM     18  C1  <0> d   1       1.170   2.087   0.002  0.00  0.00     0.000 A 
ATOM     19  C6  <0> d   1       2.385   1.422  -0.013  0.00  0.00     0.001 A 
ATOM     20  C5  <0> d   1       2.421   0.044  -0.021  0.00  0.00     0.011 A 
ENDBRANCH  14  15
ENDBRANCH   1  13
BRANCH   9  21
ATOM     21  C18 <0> d   1       7.888  -3.728  -0.092  0.00  0.00     0.317 C 
BRANCH  21  22
ATOM     22  N1  <0> d   1       8.106  -3.291   1.294  0.00  0.00     0.097 N 
ATOM     23  C22 <0> d   1       8.928  -2.073   1.339  0.00  0.00     0.299 C 
ATOM     24  C21 <0> d   1       9.180  -1.688   2.799  0.00  0.00     0.198 C 
ATOM     25  O3  <0> d   1       7.926  -1.520   3.466  0.00  0.00    -0.388 OA
ATOM     26  C20 <0> d   1       7.100  -2.687   3.441  0.00  0.00     0.198 C 
ATOM     27  C19 <0> d   1       6.827  -3.083   1.988  0.00  0.00     0.299 C 
ENDBRANCH  21  22
ENDBRANCH   9  21
TORSDOF 4
