REMARK  9 active torsions:
REMARK  status: ('A' for Active; 'I' for Inactive)
REMARK    1  A    between atoms: O1_2  and  C2_3 
REMARK    2  A    between atoms: C5_6  and  C8_9 
REMARK    3  A    between atoms: C10_14  and  C11_15 
REMARK    4  A    between atoms: C14_18  and  O3_22 
REMARK    5  A    between atoms: C16_20  and  O2_21 
REMARK    6  A    between atoms: O3_22  and  C17_23 
REMARK    7  A    between atoms: C17_23  and  C18_24 
REMARK    8  A    between atoms: C18_24  and  N3_25 
REMARK    9  A    between atoms: N4_28  and  C23_31 
ROOT
ATOM      1  C11 <0> d   1      -3.915  -4.492  -1.388  0.00  0.00     0.026 A 
ATOM      2  C12 <0> d   1      -4.220  -4.133  -2.703  0.00  0.00     0.019 A 
ATOM      3  C13 <0> d   1      -3.486  -4.654  -3.746  0.00  0.00     0.038 A 
ATOM      4  C14 <0> d   1      -2.442  -5.535  -3.495  0.00  0.00     0.071 A 
ATOM      5  C15 <0> d   1      -2.131  -5.898  -2.193  0.00  0.00     0.074 A 
ATOM      6  C16 <0> d   1      -2.859  -5.377  -1.137  0.00  0.00     0.081 A 
ENDROOT
BRANCH   4   7
ATOM      7  O3  <0> d   1      -1.722  -6.044  -4.529  0.00  0.00    -0.349 OA
BRANCH   7   8
ATOM      8  C17 <0> d   1      -2.094  -5.629  -5.845  0.00  0.00     0.203 C 
BRANCH   8   9
ATOM      9  C18 <0> d   1      -1.178  -6.301  -6.870  0.00  0.00     0.261 C 
BRANCH   9  10
ATOM     10  N3  <0> d   1      -1.379  -7.755  -6.828  0.00  0.00    -0.066 N 
ATOM     11  C22 <0> d   1      -2.735  -8.074  -7.292  0.00  0.00     0.254 C 
ATOM     12  C21 <0> d   1      -2.986  -9.578  -7.140  0.00  0.00     0.150 C 
ATOM     13  N4  <0> d   1      -1.917 -10.302  -7.845  0.00  0.00    -0.378 N 
ATOM     14  C20 <0> d   1      -0.523  -9.930  -7.559  0.00  0.00     0.150 C 
ATOM     15  C19 <0> d   1      -0.388  -8.410  -7.691  0.00  0.00     0.254 C 
ATOM     16  H31 <0> d   1      -1.264  -8.082  -5.880  0.00  0.00     0.280 HD
BRANCH  13  17
ATOM     17  C23 <0> d   1      -2.218 -11.314  -8.760  0.00  0.00     0.030 A 
ATOM     18  C28 <0> d   1      -3.538 -11.570  -9.105  0.00  0.00     0.029 A 
ATOM     19  C27 <0> d   1      -3.832 -12.568 -10.014  0.00  0.00     0.002 A 
ATOM     20  C26 <0> d   1      -2.813 -13.319 -10.571  0.00  0.00     0.000 A 
ATOM     21  C25 <0> d   1      -1.498 -13.070 -10.226  0.00  0.00     0.002 A 
ATOM     22  C24 <0> d   1      -1.197 -12.070  -9.322  0.00  0.00     0.029 A 
ENDBRANCH  13  17
ENDBRANCH   9  10
ENDBRANCH   8   9
ENDBRANCH   7   8
ENDBRANCH   4   7
BRANCH   6  23
ATOM     23  O2  <0> d   1      -2.552  -5.727   0.140  0.00  0.00    -0.360 OA
ATOM     24  H13 <0> d   1      -3.022  -6.511   0.456  0.00  0.00     0.217 HD
ENDBRANCH   6  23
BRANCH   1  25
ATOM     25  C10 <0> d   1      -4.699  -3.937  -0.268  0.00  0.00     0.075 A 
ATOM     26  C8  <0> d   1      -5.540  -4.643   0.583  0.00  0.00     0.022 A 
ATOM     27  C9  <0> d   1      -6.074  -3.723   1.502  0.00  0.00     0.153 A 
ATOM     28  N1  <0> d   1      -5.597  -2.538   1.228  0.00  0.00    -0.186 NA
ATOM     29  N2  <0> d   1      -4.738  -2.633   0.128  0.00  0.00    -0.277 N 
ATOM     30  H1  <0> d   1      -4.252  -1.899  -0.281  0.00  0.00     0.189 HD
BRANCH  26  31
ATOM     31  C5  <0> d   1      -5.819  -6.099   0.534  0.00  0.00    -0.022 A 
ATOM     32  C4  <0> d   1      -5.608  -6.888   1.664  0.00  0.00     0.015 A 
ATOM     33  C3  <0> d   1      -5.869  -8.242   1.615  0.00  0.00     0.037 A 
ATOM     34  C2  <0> d   1      -6.340  -8.818   0.444  0.00  0.00     0.068 A 
ATOM     35  C7  <0> d   1      -6.545  -8.036  -0.685  0.00  0.00     0.037 A 
ATOM     36  C6  <0> d   1      -6.291  -6.681  -0.641  0.00  0.00     0.015 A 
BRANCH  34  37
ATOM     37  O1  <0> d   1      -6.595 -10.152   0.399  0.00  0.00    -0.356 OA
ATOM     38  C1  <0> d   1      -6.362 -10.898   1.596  0.00  0.00     0.210 C 
ENDBRANCH  34  37
ENDBRANCH  26  31
ENDBRANCH   1  25
TORSDOF 9
