REMARK  4 active torsions:
REMARK  status: ('A' for Active; 'I' for Inactive)
REMARK    1  A    between atoms: N1_7  and  C7_8 
REMARK    2  A    between atoms: C7_8  and  C8_9 
REMARK    3  A    between atoms: C9_10  and  O3_30 
REMARK    4  A    between atoms: C15_17  and  C16_18 
ROOT
ATOM      1  C8  <0> d   1      -2.713   3.083   2.495  0.00  0.00     0.036 A 
ATOM      2  C9  <0> d   1      -2.992   1.971   3.275  0.00  0.00     0.076 A 
ATOM      3  C10 <0> d   1      -4.295   1.494   3.386  0.00  0.00     0.038 A 
ATOM      4  C11 <0> d   1      -5.315   2.119   2.724  0.00  0.00     0.021 A 
ATOM      5  C12 <0> d   1      -5.049   3.238   1.936  0.00  0.00     0.051 A 
ATOM      6  C13 <0> d   1      -3.739   3.731   1.822  0.00  0.00     0.101 A 
ATOM      7  O1  <0> d   1      -3.748   4.807   1.005  0.00  0.00    -0.305 OA
ATOM      8  C14 <0> d   1      -4.999   5.080   0.563  0.00  0.00     0.128 A 
ATOM      9  C15 <0> d   1      -5.342   6.103  -0.270  0.00  0.00     0.055 C 
ATOM     10  C25 <0> d   1      -5.891   4.122   1.112  0.00  0.00     0.218 A 
ATOM     11  O2  <0> d   1      -7.097   4.048   0.939  0.00  0.00    -0.284 OA
ENDROOT
BRANCH   9  12
ATOM     12  C16 <0> d   1      -4.316   7.019  -0.763  0.00  0.00    -0.005 A 
ATOM     13  C19 <0> d   1      -4.517   8.170  -1.665  0.00  0.00     0.002 A 
ATOM     14  C18 <0> d   1      -3.248   8.741  -1.852  0.00  0.00     0.045 A 
ATOM     15  C20 <0> d   1      -5.630   8.722  -2.292  0.00  0.00     0.014 A 
ATOM     16  N2  <0> d   1      -2.342   7.998  -1.122  0.00  0.00    -0.360 N 
ATOM     17  C23 <0> d   1      -3.118   9.860  -2.668  0.00  0.00     0.030 A 
ATOM     18  C17 <0> d   1      -2.969   6.986  -0.474  0.00  0.00     0.103 A 
ATOM     19  C24 <0> d   1      -0.904   8.269  -1.053  0.00  0.00     0.156 C 
ATOM     20  C22 <0> d   1      -4.229  10.397  -3.282  0.00  0.00     0.002 A 
ATOM     21  C21 <0> d   1      -5.481   9.831  -3.096  0.00  0.00     0.001 A 
ENDBRANCH   9  12
BRANCH   1  22
ATOM     22  C7  <0> d   1      -1.298   3.589   2.384  0.00  0.00     0.279 C 
BRANCH  22  23
ATOM     23  N1  <0> d   1      -0.681   3.054   1.163  0.00  0.00    -0.063 N 
ATOM     24  C2  <0> d   1       0.620   3.686   0.910  0.00  0.00     0.184 C 
ATOM     25  C1  <0> d   1       0.453   5.207   0.887  0.00  0.00     0.040 C 
ATOM     26  C3  <0> d   1       1.165   3.212  -0.440  0.00  0.00     0.033 C 
ATOM     27  C4  <0> d   1       1.311   1.688  -0.420  0.00  0.00     0.004 C 
ATOM     28  C5  <0> d   1      -0.048   1.057  -0.107  0.00  0.00     0.028 C 
ATOM     29  C6  <0> d   1      -0.557   1.592   1.233  0.00  0.00     0.235 C 
ATOM     30  H26 <0> d   1      -1.340   3.293   0.315  0.00  0.00     0.280 HD
ENDBRANCH  22  23
ENDBRANCH   1  22
BRANCH   2  31
ATOM     31  O3  <0> d   1      -1.987   1.343   3.936  0.00  0.00    -0.360 OA
ATOM     32  H27 <0> d   1      -2.203   0.461   4.556  0.00  0.00     0.217 HD
ENDBRANCH   2  31
TORSDOF 4
