REMARK  9 active torsions:
REMARK  status: ('A' for Active; 'I' for Inactive)
REMARK    1  A    between atoms: C2_2  and  C3_3 
REMARK    2  A    between atoms: C3_3  and  N1_4 
REMARK    3  A    between atoms: N1_4  and  C4_5 
REMARK    4  A    between atoms: N1_4  and  C7_8 
REMARK    5  A    between atoms: C4_5  and  C5_6 
REMARK    6  A    between atoms: C7_8  and  C8_9 
REMARK    7  A    between atoms: C9_10  and  O4_32 
REMARK    8  A    between atoms: C15_17  and  C16_18 
REMARK    9  A    between atoms: C21_24  and  O2_27 
ROOT
ATOM      1  C8  <0> d   1      -0.268   2.092   3.518  0.00  0.00     0.036 A 
ATOM      2  C9  <0> d   1      -0.128   3.419   3.891  0.00  0.00     0.076 A 
ATOM      3  C10 <0> d   1      -0.721   3.892   5.059  0.00  0.00     0.038 A 
ATOM      4  C11 <0> d   1      -1.441   3.047   5.856  0.00  0.00     0.021 A 
ATOM      5  C12 <0> d   1      -1.586   1.708   5.495  0.00  0.00     0.051 A 
ATOM      6  C13 <0> d   1      -0.997   1.222   4.317  0.00  0.00     0.101 A 
ATOM      7  O1  <0> d   1      -1.283  -0.093   4.198  0.00  0.00    -0.305 OA
ATOM      8  C14 <0> d   1      -2.038  -0.530   5.234  0.00  0.00     0.128 A 
ATOM      9  C15 <0> d   1      -2.491  -1.804   5.406  0.00  0.00     0.055 C 
ATOM     10  C26 <0> d   1      -2.277   0.561   6.110  0.00  0.00     0.218 A 
ATOM     11  O3  <0> d   1      -2.917   0.551   7.149  0.00  0.00    -0.284 OA
ENDROOT
BRANCH   9  12
ATOM     12  C16 <0> d   1      -2.169  -2.834   4.421  0.00  0.00    -0.005 A 
ATOM     13  C19 <0> d   1      -2.578  -4.251   4.456  0.00  0.00     0.005 A 
ATOM     14  C18 <0> d   1      -2.033  -4.840   3.304  0.00  0.00     0.045 A 
ATOM     15  C20 <0> d   1      -3.330  -5.016   5.344  0.00  0.00     0.051 A 
ATOM     16  N2  <0> d   1      -1.345  -3.859   2.617  0.00  0.00    -0.360 N 
ATOM     17  C23 <0> d   1      -2.252  -6.192   3.059  0.00  0.00     0.033 A 
ATOM     18  C17 <0> d   1      -1.427  -2.674   3.270  0.00  0.00     0.103 A 
ATOM     19  C25 <0> d   1      -0.630  -4.068   1.355  0.00  0.00     0.156 C 
ATOM     20  C22 <0> d   1      -2.997  -6.941   3.942  0.00  0.00     0.039 A 
ATOM     21  C21 <0> d   1      -3.537  -6.358   5.085  0.00  0.00     0.069 A 
BRANCH  21  22
ATOM     22  O2  <0> d   1      -4.271  -7.110   5.948  0.00  0.00    -0.356 OA
ATOM     23  C24 <0> d   1      -4.446  -8.490   5.619  0.00  0.00     0.210 C 
ENDBRANCH  21  22
ENDBRANCH   9  12
BRANCH   1  24
ATOM     24  C7  <0> d   1       0.374   1.593   2.249  0.00  0.00     0.279 C 
BRANCH  24  25
ATOM     25  N1  <0> d   1      -0.621   1.582   1.168  0.00  0.00    -0.067 N 
ATOM     26  H30 <0> d   1      -1.497   1.018   1.521  0.00  0.00     0.280 HD
BRANCH  25  27
ATOM     27  C3  <0> d   1      -1.062   2.945   0.844  0.00  0.00     0.234 C 
BRANCH  27  28
ATOM     28  C2  <0> d   1      -2.369   2.884   0.051  0.00  0.00     0.023 C 
ATOM     29  C1  <0> d   1      -2.828   4.304  -0.286  0.00  0.00     0.007 C 
ENDBRANCH  27  28
ENDBRANCH  25  27
BRANCH  25  30
ATOM     30  C4  <0> d   1      -0.096   0.901  -0.023  0.00  0.00     0.234 C 
BRANCH  30  31
ATOM     31  C5  <0> d   1      -0.022  -0.604   0.240  0.00  0.00     0.023 C 
ATOM     32  C6  <0> d   1       0.410  -1.325  -1.038  0.00  0.00     0.007 C 
ENDBRANCH  30  31
ENDBRANCH  25  30
ENDBRANCH  24  25
ENDBRANCH   1  24
BRANCH   2  33
ATOM     33  O4  <0> d   1       0.589   4.266   3.109  0.00  0.00    -0.360 OA
ATOM     34  H31 <0> d   1       0.704   5.320   3.401  0.00  0.00     0.217 HD
ENDBRANCH   2  33
TORSDOF 9
