REMARK  7 active torsions:
REMARK  status: ('A' for Active; 'I' for Inactive)
REMARK    1  A    between atoms: O1_2  and  C2_3 
REMARK    2  A    between atoms: C5_6  and  N1_9 
REMARK    3  A    between atoms: N2_12  and  C12_15 
REMARK    4  A    between atoms: C12_15  and  C13_16 
REMARK    5  A    between atoms: C20_24  and  C21_25 
REMARK    6  A    between atoms: C25_29  and  O4_33 
REMARK    7  A    between atoms: C26_30  and  O3_31 
ROOT
ATOM      1  C13 <0> d   1      -9.321  -6.510   3.479  0.00  0.00     0.039 A 
ATOM      2  C14 <0> d   1     -10.485  -6.877   2.823  0.00  0.00     0.118 A 
ATOM      3  C15 <0> d   1     -10.538  -8.053   2.080  0.00  0.00     0.041 A 
ATOM      4  C16 <0> d   1      -9.438  -8.860   1.991  0.00  0.00     0.021 A 
ATOM      5  C17 <0> d   1      -8.260  -8.503   2.647  0.00  0.00     0.051 A 
ATOM      6  C18 <0> d   1      -8.192  -7.316   3.394  0.00  0.00     0.101 A 
ATOM      7  O2  <0> d   1      -6.958  -7.182   3.926  0.00  0.00    -0.305 OA
ATOM      8  C19 <0> d   1      -6.149  -8.213   3.585  0.00  0.00     0.128 A 
ATOM      9  C20 <0> d   1      -4.853  -8.373   3.958  0.00  0.00     0.055 C 
ATOM     10  C29 <0> d   1      -6.932  -9.135   2.750  0.00  0.00     0.218 A 
ATOM     11  O5  <0> d   1      -6.562 -10.181   2.245  0.00  0.00    -0.284 OA
ATOM     12  O6  <0> d   1     -11.583  -6.083   2.905  0.00  0.00    -0.191 OA
ENDROOT
BRANCH   1  13
ATOM     13  C12 <0> d   1      -9.278  -5.234   4.280  0.00  0.00     0.279 C 
BRANCH  13  14
ATOM     14  N2  <0> d   1      -8.854  -4.127   3.413  0.00  0.00    -0.064 N 
ATOM     15  C9  <0> d   1      -8.927  -2.866   4.162  0.00  0.00     0.255 C 
ATOM     16  C8  <0> d   1      -8.596  -1.698   3.228  0.00  0.00     0.150 C 
ATOM     17  N1  <0> d   1      -7.290  -1.957   2.602  0.00  0.00    -0.378 N 
ATOM     18  C11 <0> d   1      -7.075  -3.264   1.963  0.00  0.00     0.150 C 
ATOM     19  C10 <0> d   1      -7.476  -4.361   2.962  0.00  0.00     0.255 C 
ATOM     20  H30 <0> d   1      -9.465  -4.077   2.612  0.00  0.00     0.280 HD
BRANCH  17  21
ATOM     21  C5  <0> d   1      -6.282  -0.986   2.610  0.00  0.00     0.030 A 
ATOM     22  C4  <0> d   1      -5.022  -1.287   2.110  0.00  0.00     0.032 A 
ATOM     23  C3  <0> d   1      -4.029  -0.328   2.118  0.00  0.00     0.039 A 
ATOM     24  C2  <0> d   1      -4.290   0.937   2.624  0.00  0.00     0.068 A 
ATOM     25  C7  <0> d   1      -5.546   1.237   3.129  0.00  0.00     0.039 A 
ATOM     26  C6  <0> d   1      -6.542   0.281   3.117  0.00  0.00     0.032 A 
BRANCH  24  27
ATOM     27  O1  <0> d   1      -3.311   1.881   2.632  0.00  0.00    -0.356 OA
ATOM     28  C1  <0> d   1      -2.041   1.503   2.096  0.00  0.00     0.210 C 
ENDBRANCH  24  27
ENDBRANCH  17  21
ENDBRANCH  13  14
ENDBRANCH   1  13
BRANCH   9  29
ATOM     29  C21 <0> d   1      -4.163  -7.305   4.691  0.00  0.00     0.003 A 
ATOM     30  C26 <0> d   1      -2.981  -7.582   5.394  0.00  0.00     0.111 A 
ATOM     31  C25 <0> d   1      -2.334  -6.560   6.080  0.00  0.00     0.102 A 
ATOM     32  C24 <0> d   1      -2.863  -5.279   6.077  0.00  0.00     0.040 A 
ATOM     33  C23 <0> d   1      -4.034  -5.006   5.387  0.00  0.00     0.004 A 
ATOM     34  C22 <0> d   1      -4.685  -6.005   4.698  0.00  0.00     0.014 A 
BRANCH  30  35
ATOM     35  O3  <0> d   1      -2.468  -8.839   5.400  0.00  0.00    -0.352 OA
ATOM     36  C27 <0> d   1      -1.540  -9.166   4.362  0.00  0.00     0.210 C 
ENDBRANCH  30  35
BRANCH  31  37
ATOM     37  O4  <0> d   1      -1.184  -6.818   6.759  0.00  0.00    -0.353 OA
ATOM     38  C28 <0> d   1      -0.576  -5.722   7.446  0.00  0.00     0.210 C 
ENDBRANCH  31  37
ENDBRANCH   9  29
TORSDOF 7
