REMARK  3 active torsions:
REMARK  status: ('A' for Active; 'I' for Inactive)
REMARK    1  A    between atoms: C5_5  and  C8_8 
REMARK    2  A    between atoms: C15_16  and  C17_19 
REMARK    3  A    between atoms: C17_19  and  N1_20 
ROOT
ATOM      1  C8  <0> d   1       1.951  -1.606  -0.026  0.00  0.00     0.053 C 
ATOM      2  C9  <0> d   1       1.430  -0.354  -0.037  0.00  0.00     0.127 A 
ATOM      3  C10 <0> d   1      -0.001  -0.007  -0.026  0.00  0.00     0.218 A 
ATOM      4  O1  <0> d   1      -0.953  -0.768  -0.005  0.00  0.00    -0.284 OA
ATOM      5  C11 <0> d   1      -0.023   1.467  -0.047  0.00  0.00     0.051 A 
ATOM      6  C12 <0> d   1      -1.056   2.405  -0.043  0.00  0.00     0.021 A 
ATOM      7  C13 <0> d   1      -0.763   3.740  -0.070  0.00  0.00     0.041 A 
ATOM      8  C14 <0> d   1       0.563   4.164  -0.090  0.00  0.00     0.118 A 
ATOM      9  C15 <0> d   1       1.598   3.244  -0.088  0.00  0.00     0.041 A 
ATOM     10  C16 <0> d   1       1.318   1.883  -0.067  0.00  0.00     0.101 A 
ATOM     11  O2  <0> d   1       2.130   0.804  -0.061  0.00  0.00    -0.305 OA
ATOM     12  O4  <0> d   1       0.844   5.492  -0.112  0.00  0.00    -0.191 OA
ENDROOT
BRANCH   1  13
ATOM     13  C5  <0> d   1       3.403  -1.799  -0.151  0.00  0.00    -0.033 A 
ATOM     14  C4  <0> d   1       4.262  -0.694  -0.154  0.00  0.00     0.012 A 
ATOM     15  C3  <0> d   1       5.622  -0.884  -0.272  0.00  0.00     0.007 A 
ATOM     16  C2  <0> d   1       6.139  -2.162  -0.389  0.00  0.00    -0.062 A 
ATOM     17  C1  <0> d   1       7.627  -2.360  -0.517  0.00  0.00     0.048 C 
ATOM     18  C7  <0> d   1       5.296  -3.260  -0.388  0.00  0.00     0.007 A 
ATOM     19  C6  <0> d   1       3.934  -3.089  -0.264  0.00  0.00     0.012 A 
ENDBRANCH   1  13
BRANCH   9  20
ATOM     20  C17 <0> d   1       3.028   3.718  -0.110  0.00  0.00     0.317 C 
BRANCH  20  21
ATOM     21  N1  <0> d   1       3.478   3.853  -1.502  0.00  0.00     0.097 N 
ATOM     22  C21 <0> d   1       4.779   4.535  -1.572  0.00  0.00     0.299 C 
ATOM     23  C20 <0> d   1       5.180   4.708  -3.039  0.00  0.00     0.198 C 
ATOM     24  O3  <0> d   1       5.206   3.427  -3.675  0.00  0.00    -0.388 OA
ATOM     25  C19 <0> d   1       3.955   2.735  -3.627  0.00  0.00     0.198 C 
ATOM     26  C18 <0> d   1       3.541   2.542  -2.166  0.00  0.00     0.299 C 
ENDBRANCH  20  21
ENDBRANCH   9  20
TORSDOF 3
