REMARK  5 active torsions:
REMARK  status: ('A' for Active; 'I' for Inactive)
REMARK    1  A    between atoms: C4_4  and  C7_7 
REMARK    2  A    between atoms: C12_12  and  O1_13 
REMARK    3  A    between atoms: C13_14  and  C16_19 
REMARK    4  A    between atoms: C16_19  and  N1_20 
REMARK    5  A    between atoms: N2_23  and  C21_26 
ROOT
ATOM      1  C7  <0> d   1       3.778  -0.815   0.167  0.00  0.00     0.010 A 
ATOM      2  C8  <0> d   1       4.223  -1.713   1.131  0.00  0.00     0.053 A 
ATOM      3  C9  <0> d   1       5.493  -2.260   1.033  0.00  0.00     0.091 A 
ATOM      4  C10 <0> d   1       6.325  -1.901  -0.044  0.00  0.00     0.009 A 
ATOM      5  C11 <0> d   1       5.873  -0.997  -1.011  0.00  0.00     0.052 A 
ATOM      6  C12 <0> d   1       4.606  -0.462  -0.909  0.00  0.00     0.077 A 
ATOM      7  C13 <0> d   1       7.664  -2.488  -0.133  0.00  0.00    -0.014 A 
ATOM      8  C14 <0> d   1       8.049  -3.360   0.835  0.00  0.00     0.092 A 
ATOM      9  C15 <0> d   1       7.163  -3.675   1.887  0.00  0.00     0.288 A 
ATOM     10  O2  <0> d   1       7.521  -4.458   2.749  0.00  0.00    -0.260 OA
ATOM     11  O3  <0> d   1       5.938  -3.134   1.963  0.00  0.00    -0.275 OA
ENDROOT
BRANCH   7  12
ATOM     12  C16 <0> d   1       8.590  -2.135  -1.268  0.00  0.00     0.274 C 
BRANCH  12  13
ATOM     13  N1  <0> d   1       8.299  -2.994  -2.424  0.00  0.00    -0.064 N 
ATOM     14  C20 <0> d   1       9.118  -2.570  -3.566  0.00  0.00     0.255 C 
ATOM     15  C19 <0> d   1       8.732  -3.389  -4.802  0.00  0.00     0.152 C 
ATOM     16  N2  <0> d   1       8.848  -4.818  -4.469  0.00  0.00    -0.363 N 
ATOM     17  C18 <0> d   1       8.190  -5.300  -3.245  0.00  0.00     0.152 C 
ATOM     18  C17 <0> d   1       8.601  -4.390  -2.082  0.00  0.00     0.255 C 
ATOM     19  H24 <0> d   1       7.322  -2.913  -2.663  0.00  0.00     0.280 HD
BRANCH  16  20
ATOM     20  C21 <0> d   1       9.558  -5.687  -5.288  0.00  0.00     0.125 A 
ATOM     21  N3  <0> d   1      10.306  -5.203  -6.268  0.00  0.00    -0.244 NA
ATOM     22  C25 <0> d   1      11.000  -5.993  -7.064  0.00  0.00     0.119 A 
ATOM     23  C24 <0> d   1      10.962  -7.364  -6.910  0.00  0.00     0.019 A 
ATOM     24  C23 <0> d   1      10.185  -7.913  -5.898  0.00  0.00     0.005 A 
ATOM     25  C22 <0> d   1       9.473  -7.060  -5.076  0.00  0.00     0.050 A 
ENDBRANCH  16  20
ENDBRANCH  12  13
ENDBRANCH   7  12
BRANCH   6  26
ATOM     26  O1  <0> d   1       4.160   0.412  -1.849  0.00  0.00    -0.360 OA
ATOM     27  H8  <0> d   1       4.357   1.338  -1.651  0.00  0.00     0.217 HD
ENDBRANCH   6  26
BRANCH   1  28
ATOM     28  C4  <0> d   1       2.420  -0.231   0.275  0.00  0.00    -0.023 A 
ATOM     29  C3  <0> d   1       2.239   1.147   0.165  0.00  0.00     0.012 A 
ATOM     30  C2  <0> d   1       0.972   1.684   0.265  0.00  0.00     0.001 A 
ATOM     31  C1  <0> d   1      -0.118   0.858   0.475  0.00  0.00     0.000 A 
ATOM     32  C6  <0> d   1       0.055  -0.510   0.585  0.00  0.00     0.001 A 
ATOM     33  C5  <0> d   1       1.318  -1.059   0.486  0.00  0.00     0.012 A 
ENDBRANCH   1  28
TORSDOF 5
