REMARK  12 active torsions:
REMARK  status: ('A' for Active; 'I' for Inactive)
REMARK    1  A    between atoms: C2_2  and  C3_3 
REMARK    2  A    between atoms: C3_3  and  O1_4 
REMARK    3  A    between atoms: O1_4  and  C4_5 
REMARK    4  A    between atoms: C4_5  and  C5_7 
REMARK    5  A    between atoms: C8_10  and  O3_13 
REMARK    6  A    between atoms: O3_13  and  C11_14 
REMARK    7  A    between atoms: C18_23  and  O7_35 
REMARK    8  A    between atoms: C19_24  and  C20_25 
REMARK    9  A    between atoms: C20_25  and  N1_26 
REMARK   10  A    between atoms: N2_29  and  C25_32 
REMARK   11  A    between atoms: C25_32  and  C26_33 
REMARK   12  A    between atoms: C26_33  and  O6_34 
ROOT
ATOM      1  C11 <0> d   1      -4.045  -1.486   5.522  0.00  0.00     0.149 A 
ATOM      2  C12 <0> d   1      -3.377  -1.801   4.394  0.00  0.00     0.184 A 
ATOM      3  O4  <0> d   1      -2.489  -0.977   3.824  0.00  0.00    -0.318 OA
ATOM      4  C13 <0> d   1      -2.195   0.235   4.337  0.00  0.00     0.100 A 
ATOM      5  C14 <0> d   1      -2.832   0.669   5.513  0.00  0.00     0.051 A 
ATOM      6  C15 <0> d   1      -3.811  -0.229   6.149  0.00  0.00     0.220 A 
ATOM      7  O5  <0> d   1      -4.397   0.090   7.170  0.00  0.00    -0.284 OA
ATOM      8  C16 <0> d   1      -2.537   1.921   6.053  0.00  0.00     0.021 A 
ATOM      9  C17 <0> d   1      -1.623   2.727   5.435  0.00  0.00     0.038 A 
ATOM     10  C18 <0> d   1      -0.983   2.304   4.272  0.00  0.00     0.076 A 
ATOM     11  C19 <0> d   1      -1.270   1.066   3.721  0.00  0.00     0.038 A 
ENDROOT
BRANCH   1  12
ATOM     12  O3  <0> d   1      -4.937  -2.364   6.057  0.00  0.00    -0.305 OA
BRANCH  12  13
ATOM     13  C8  <0> d   1      -5.059  -3.583   5.476  0.00  0.00     0.076 A 
ATOM     14  C7  <0> d   1      -4.106  -4.566   5.721  0.00  0.00     0.038 A 
ATOM     15  C6  <0> d   1      -4.226  -5.805   5.133  0.00  0.00     0.020 A 
ATOM     16  C5  <0> d   1      -5.306  -6.074   4.288  0.00  0.00     0.039 A 
ATOM     17  C10 <0> d   1      -6.262  -5.083   4.044  0.00  0.00     0.020 A 
ATOM     18  C9  <0> d   1      -6.138  -3.849   4.640  0.00  0.00     0.038 A 
BRANCH  16  19
ATOM     19  C4  <0> d   1      -5.438  -7.400   3.655  0.00  0.00     0.293 C 
ATOM     20  O2  <0> d   1      -4.606  -8.260   3.868  0.00  0.00    -0.259 OA
BRANCH  19  21
ATOM     21  O1  <0> d   1      -6.480  -7.657   2.841  0.00  0.00    -0.318 OA
BRANCH  21  22
ATOM     22  C3  <0> d   1      -6.545  -8.983   2.253  0.00  0.00     0.178 C 
BRANCH  22  23
ATOM     23  C2  <0> d   1      -7.788  -9.088   1.367  0.00  0.00     0.022 C 
ATOM     24  C1  <0> d   1      -7.856 -10.485   0.747  0.00  0.00     0.007 C 
ENDBRANCH  22  23
ENDBRANCH  21  22
ENDBRANCH  19  21
ENDBRANCH  16  19
ENDBRANCH  12  13
ENDBRANCH   1  12
BRANCH  11  25
ATOM     25  C20 <0> d   1      -0.575   0.621   2.460  0.00  0.00     0.317 C 
BRANCH  25  26
ATOM     26  N1  <0> d   1      -1.362   1.042   1.293  0.00  0.00     0.096 N 
ATOM     27  C24 <0> d   1      -1.790   2.441   1.423  0.00  0.00     0.303 C 
ATOM     28  C23 <0> d   1      -2.670   2.816   0.228  0.00  0.00     0.302 C 
ATOM     29  N2  <0> d   1      -1.916   2.613  -1.016  0.00  0.00     0.093 N 
ATOM     30  C22 <0> d   1      -1.488   1.213  -1.147  0.00  0.00     0.302 C 
ATOM     31  C21 <0> d   1      -0.608   0.838   0.048  0.00  0.00     0.303 C 
BRANCH  29  32
ATOM     32  C25 <0> d   1      -2.702   3.034  -2.184  0.00  0.00     0.298 C 
BRANCH  32  33
ATOM     33  C26 <0> d   1      -3.199   4.466  -1.974  0.00  0.00     0.194 C 
BRANCH  33  34
ATOM     34  O6  <0> d   1      -2.081   5.352  -1.902  0.00  0.00    -0.399 OA
ATOM     35  H29 <0> d   1      -2.243   6.430  -1.752  0.00  0.00     0.209 HD
ENDBRANCH  33  34
ENDBRANCH  32  33
ENDBRANCH  29  32
ENDBRANCH  25  26
ENDBRANCH  11  25
BRANCH  10  36
ATOM     36  O7  <0> d   1      -0.073   3.113   3.672  0.00  0.00    -0.360 OA
ATOM     37  H30 <0> d   1       0.435   2.783   2.754  0.00  0.00     0.217 HD
ENDBRANCH  10  36
TORSDOF 12
