REMARK  7 active torsions:
REMARK  status: ('A' for Active; 'I' for Inactive)
REMARK    1  A    between atoms: C5_5  and  C6_7 
REMARK    2  A    between atoms: C12_14  and  O5_28 
REMARK    3  A    between atoms: C13_15  and  C15_18 
REMARK    4  A    between atoms: C15_18  and  N1_19 
REMARK    5  A    between atoms: N2_22  and  C20_25 
REMARK    6  A    between atoms: C20_25  and  C21_26 
REMARK    7  A    between atoms: C21_26  and  O4_27 
ROOT
ATOM      1  C6  <0> d   1       2.064  -3.154   0.198  0.00  0.00     0.078 C 
ATOM      2  C7  <0> d   1       3.367  -2.758   0.283  0.00  0.00     0.129 A 
ATOM      3  C8  <0> d   1       4.489  -3.619   0.421  0.00  0.00     0.218 A 
ATOM      4  O2  <0> d   1       4.485  -4.837   0.485  0.00  0.00    -0.284 OA
ATOM      5  C9  <0> d   1       5.658  -2.724   0.469  0.00  0.00     0.051 A 
ATOM      6  C10 <0> d   1       7.030  -2.941   0.593  0.00  0.00     0.021 A 
ATOM      7  C11 <0> d   1       7.889  -1.878   0.607  0.00  0.00     0.038 A 
ATOM      8  C12 <0> d   1       7.399  -0.580   0.497  0.00  0.00     0.076 A 
ATOM      9  C13 <0> d   1       6.038  -0.348   0.374  0.00  0.00     0.038 A 
ATOM     10  C14 <0> d   1       5.153  -1.418   0.357  0.00  0.00     0.101 A 
ATOM     11  O3  <0> d   1       3.808  -1.479   0.245  0.00  0.00    -0.305 OA
ENDROOT
BRANCH   9  12
ATOM     12  C15 <0> d   1       5.520   1.062   0.257  0.00  0.00     0.317 C 
BRANCH  12  13
ATOM     13  N1  <0> d   1       5.465   1.448  -1.159  0.00  0.00     0.096 N 
ATOM     14  C19 <0> d   1       5.193   2.885  -1.304  0.00  0.00     0.303 C 
ATOM     15  C18 <0> d   1       5.222   3.260  -2.787  0.00  0.00     0.302 C 
ATOM     16  N2  <0> d   1       4.222   2.462  -3.511  0.00  0.00     0.093 N 
ATOM     17  C17 <0> d   1       4.494   1.026  -3.367  0.00  0.00     0.302 C 
ATOM     18  C16 <0> d   1       4.465   0.650  -1.884  0.00  0.00     0.303 C 
BRANCH  16  19
ATOM     19  C20 <0> d   1       4.167   2.848  -4.928  0.00  0.00     0.298 C 
BRANCH  19  20
ATOM     20  C21 <0> d   1       2.840   2.384  -5.531  0.00  0.00     0.194 C 
BRANCH  20  21
ATOM     21  O4  <0> d   1       1.761   3.079  -4.902  0.00  0.00    -0.399 OA
ATOM     22  H23 <0> d   1       0.887   2.834  -5.235  0.00  0.00     0.209 HD
ENDBRANCH  20  21
ENDBRANCH  19  20
ENDBRANCH  16  19
ENDBRANCH  12  13
ENDBRANCH   9  12
BRANCH   8  23
ATOM     23  O5  <0> d   1       8.261   0.469   0.512  0.00  0.00    -0.360 OA
ATOM     24  H24 <0> d   1       8.583   0.726  -0.363  0.00  0.00     0.217 HD
ENDBRANCH   8  23
BRANCH   1  25
ATOM     25  C5  <0> d   1       1.040  -2.191   0.056  0.00  0.00     0.078 A 
ATOM     26  C4  <0> d   1      -0.313  -2.449  -0.042  0.00  0.00     0.040 A 
ATOM     27  C3  <0> d   1      -0.949  -1.205  -0.167  0.00  0.00     0.035 A 
ATOM     28  C2  <0> d   1       0.017  -0.258  -0.141  0.00  0.00     0.050 A 
ATOM     29  C1  <0> d   1      -0.213   1.227  -0.248  0.00  0.00     0.076 C 
ATOM     30  O1  <0> d   1       1.211  -0.854  -0.013  0.00  0.00    -0.316 OA
ENDBRANCH   1  25
TORSDOF 7
