REMARK  6 active torsions:
REMARK  status: ('A' for Active; 'I' for Inactive)
REMARK    1  A    between atoms: C9_10  and  C10_11 
REMARK    2  A    between atoms: C13_14  and  O2_17 
REMARK    3  A    between atoms: N1_22  and  C20_25 
REMARK    4  A    between atoms: C20_25  and  C21_26 
REMARK    5  A    between atoms: C21_26  and  C22_27 
REMARK    6  A    between atoms: C22_27  and  N2_28 
ROOT
ATOM      1  C1  <0> d   1       0.075   1.497   0.006  0.00  0.00     0.054 C 
ATOM      2  C2  <0> d   1       0.089  -0.010   0.000  0.00  0.00     0.007 A 
ATOM      3  C3  <0> d   1       0.110  -0.697  -1.206  0.00  0.00     0.087 A 
ATOM      4  C4  <0> d   1       0.124  -2.088  -1.224  0.00  0.00     0.005 A 
ATOM      5  C5  <0> d   1       0.114  -2.789  -0.048  0.00  0.00     0.030 A 
ATOM      6  C6  <0> d   1       0.091  -2.111   1.169  0.00  0.00     0.052 A 
ATOM      7  C7  <0> d   1       0.086  -0.707   1.201  0.00  0.00     0.099 A 
ATOM      8  O1  <0> d   1       0.073  -0.280   2.482  0.00  0.00    -0.305 OA
ATOM      9  C8  <0> d   1       0.073  -1.314   3.357  0.00  0.00     0.127 A 
ATOM     10  C9  <0> d   1       0.060  -1.218   4.711  0.00  0.00     0.053 C 
ATOM     11  C17 <0> d   1       0.075  -2.558   2.574  0.00  0.00     0.218 A 
ATOM     12  O3  <0> d   1       0.078  -3.703   2.993  0.00  0.00    -0.284 OA
ATOM     13  C18 <0> d   1       0.154  -2.842  -2.529  0.00  0.00     0.316 C 
ATOM     14  N1  <0> d   1      -0.251  -1.949  -3.623  0.00  0.00     0.116 N 
ATOM     15  C19 <0> d   1       0.502  -0.686  -3.553  0.00  0.00     0.447 C 
ATOM     16  O4  <0> d   1       0.115   0.011  -2.366  0.00  0.00    -0.320 OA
ENDROOT
BRANCH  14  17
ATOM     17  C20 <0> d   1      -0.068  -2.599  -4.928  0.00  0.00     0.277 C 
BRANCH  17  18
ATOM     18  C21 <0> d   1      -0.725  -1.749  -6.017  0.00  0.00     0.058 C 
BRANCH  18  19
ATOM     19  C22 <0> d   1      -0.535  -2.425  -7.376  0.00  0.00     0.236 C 
BRANCH  19  20
ATOM     20  N2  <0> d   1      -1.166  -1.609  -8.422  0.00  0.00    -0.067 N 
ATOM     21  C26 <0> d   1      -0.881  -2.195  -9.739  0.00  0.00     0.261 C 
ATOM     22  C25 <0> d   1      -1.540  -1.343 -10.827  0.00  0.00     0.195 C 
ATOM     23  O5  <0> d   1      -2.946  -1.266 -10.579  0.00  0.00    -0.388 OA
ATOM     24  C24 <0> d   1      -3.274  -0.723  -9.297  0.00  0.00     0.195 C 
ATOM     25  C23 <0> d   1      -2.619  -1.574  -8.207  0.00  0.00     0.261 C 
ATOM     26  H31 <0> d   1      -0.797  -0.671  -8.385  0.00  0.00     0.280 HD
ENDBRANCH  19  20
ENDBRANCH  18  19
ENDBRANCH  17  18
ENDBRANCH  14  17
BRANCH  10  27
ATOM     27  C10 <0> d   1       0.162   0.097   5.355  0.00  0.00    -0.033 A 
ATOM     28  C15 <0> d   1       0.142   1.263   4.579  0.00  0.00     0.014 A 
ATOM     29  C14 <0> d   1       0.231   2.494   5.189  0.00  0.00     0.037 A 
ATOM     30  C13 <0> d   1       0.352   2.581   6.572  0.00  0.00     0.068 A 
ATOM     31  C12 <0> d   1       0.378   1.426   7.346  0.00  0.00     0.037 A 
ATOM     32  C11 <0> d   1       0.284   0.190   6.748  0.00  0.00     0.014 A 
BRANCH  30  33
ATOM     33  O2  <0> d   1       0.446   3.797   7.167  0.00  0.00    -0.356 OA
ATOM     34  C16 <0> d   1       0.413   4.942   6.313  0.00  0.00     0.210 C 
ENDBRANCH  30  33
ENDBRANCH  10  27
TORSDOF 6
