REMARK  9 active torsions:
REMARK  status: ('A' for Active; 'I' for Inactive)
REMARK    1  A    between atoms: C3_3  and  O3_24 
REMARK    2  A    between atoms: C6_6  and  C8_9 
REMARK    3  A    between atoms: C7_7  and  O1_8 
REMARK    4  A    between atoms: C9_10  and  C12_16 
REMARK    5  A    between atoms: C15_19  and  O2_22 
REMARK    6  A    between atoms: O3_24  and  C19_25 
REMARK    7  A    between atoms: C19_25  and  C20_26 
REMARK    8  A    between atoms: C20_26  and  N3_27 
REMARK    9  A    between atoms: N4_30  and  C25_33 
ROOT
ATOM      1  C1  <0> d   1       0.865   1.930   1.077  0.00  0.00     0.054 C 
ATOM      2  C2  <0> d   1       0.673   0.447   0.891  0.00  0.00     0.005 A 
ATOM      3  C3  <0> d   1       0.464  -0.071  -0.378  0.00  0.00     0.077 A 
ATOM      4  C4  <0> d   1       0.286  -1.438  -0.556  0.00  0.00     0.038 A 
ATOM      5  C5  <0> d   1       0.317  -2.288   0.529  0.00  0.00     0.019 A 
ATOM      6  C6  <0> d   1       0.527  -1.775   1.810  0.00  0.00     0.027 A 
ATOM      7  C7  <0> d   1       0.711  -0.397   1.987  0.00  0.00     0.086 A 
ENDROOT
BRANCH   3   8
ATOM      8  O3  <0> d   1       0.433   0.760  -1.452  0.00  0.00    -0.349 OA
BRANCH   8   9
ATOM      9  C19 <0> d   1       0.213   0.161  -2.731  0.00  0.00     0.203 C 
BRANCH   9  10
ATOM     10  C20 <0> d   1       0.210   1.246  -3.809  0.00  0.00     0.261 C 
BRANCH  10  11
ATOM     11  N3  <0> d   1       1.535   1.878  -3.872  0.00  0.00    -0.066 N 
ATOM     12  C24 <0> d   1       2.523   0.895  -4.335  0.00  0.00     0.254 C 
ATOM     13  C23 <0> d   1       3.921   1.519  -4.291  0.00  0.00     0.150 C 
ATOM     14  N4  <0> d   1       3.899   2.769  -5.066  0.00  0.00    -0.378 N 
ATOM     15  C22 <0> d   1       2.837   3.745  -4.777  0.00  0.00     0.150 C 
ATOM     16  C21 <0> d   1       1.489   3.016  -4.798  0.00  0.00     0.254 C 
ATOM     17  H35 <0> d   1       1.793   2.205  -2.953  0.00  0.00     0.280 HD
BRANCH  14  18
ATOM     18  C25 <0> d   1       4.859   3.023  -6.048  0.00  0.00     0.030 A 
ATOM     19  C30 <0> d   1       5.784   2.043  -6.387  0.00  0.00     0.029 A 
ATOM     20  C29 <0> d   1       6.729   2.296  -7.362  0.00  0.00     0.002 A 
ATOM     21  C28 <0> d   1       6.762   3.526  -7.993  0.00  0.00     0.000 A 
ATOM     22  C27 <0> d   1       5.847   4.505  -7.654  0.00  0.00     0.002 A 
ATOM     23  C26 <0> d   1       4.896   4.258  -6.684  0.00  0.00     0.029 A 
ENDBRANCH  14  18
ENDBRANCH  10  11
ENDBRANCH   9  10
ENDBRANCH   8   9
ENDBRANCH   3   8
BRANCH   7  24
ATOM     24  O1  <0> d   1       0.921   0.108   3.230  0.00  0.00    -0.359 OA
ATOM     25  H7  <0> d   1       0.110   0.283   3.726  0.00  0.00     0.217 HD
ENDBRANCH   7  24
BRANCH   6  26
ATOM     26  C8  <0> d   1       0.561  -2.682   2.975  0.00  0.00     0.076 A 
ATOM     27  C9  <0> d   1       1.651  -2.930   3.799  0.00  0.00     0.029 A 
ATOM     28  C10 <0> d   1       1.237  -3.853   4.775  0.00  0.00     0.064 A 
ATOM     29  N1  <0> d   1      -0.018  -4.148   4.562  0.00  0.00    -0.178 NA
ATOM     30  C11 <0> d   1       2.096  -4.409   5.881  0.00  0.00     0.073 C 
ATOM     31  N2  <0> d   1      -0.474  -3.432   3.450  0.00  0.00    -0.276 N 
ATOM     32  H1  <0> d   1      -1.370  -3.465   3.080  0.00  0.00     0.189 HD
BRANCH  27  33
ATOM     33  C12 <0> d   1       3.002  -2.331   3.672  0.00  0.00    -0.021 A 
ATOM     34  C17 <0> d   1       3.484  -1.478   4.663  0.00  0.00     0.015 A 
ATOM     35  C16 <0> d   1       4.744  -0.928   4.545  0.00  0.00     0.037 A 
ATOM     36  C15 <0> d   1       5.526  -1.214   3.435  0.00  0.00     0.068 A 
ATOM     37  C14 <0> d   1       5.047  -2.058   2.443  0.00  0.00     0.037 A 
ATOM     38  C13 <0> d   1       3.791  -2.616   2.558  0.00  0.00     0.015 A 
BRANCH  36  39
ATOM     39  O2  <0> d   1       6.765  -0.666   3.319  0.00  0.00    -0.356 OA
ATOM     40  C18 <0> d   1       7.195   0.194   4.376  0.00  0.00     0.210 C 
ENDBRANCH  36  39
ENDBRANCH  27  33
ENDBRANCH   6  26
TORSDOF 9
