REMARK  5 active torsions:
REMARK  status: ('A' for Active; 'I' for Inactive)
REMARK       I    between atoms: C2_2  and  N1_4 
REMARK    1  A    between atoms: N1_4  and  C3_5 
REMARK    2  A    between atoms: C7_9  and  C9_11 
REMARK    3  A    between atoms: C9_11  and  C10_13 
REMARK    4  A    between atoms: C10_13  and  C11_14 
REMARK    5  A    between atoms: C11_14  and  C12_16 
ROOT
ATOM      1  C3  <0> d   1      -0.039   3.575  -3.713  0.00  0.00     0.035 A 
ATOM      2  C4  <0> d   1      -0.029   4.271  -2.508  0.00  0.00     0.032 A 
ATOM      3  C5  <0> d   1      -0.013   3.589  -1.309  0.00  0.00     0.043 A 
ATOM      4  C6  <0> d   1      -0.007   2.202  -1.295  0.00  0.00     0.121 A 
ATOM      5  C7  <0> d   1      -0.011   1.492  -2.506  0.00  0.00     0.049 A 
ATOM      6  C8  <0> d   1      -0.033   2.192  -3.719  0.00  0.00     0.047 A 
ATOM      7  O4  <0> d   1       0.009   1.533  -0.115  0.00  0.00    -0.191 OA
ENDROOT
BRANCH   5   8
ATOM      8  C9  <0> d   1       0.001   0.024  -2.502  0.00  0.00     0.169 C 
ATOM      9  O2  <0> d   1       0.015  -0.579  -1.450  0.00  0.00    -0.292 OA
BRANCH   8  10
ATOM     10  C10 <0> d   1      -0.004  -0.733  -3.805  0.00  0.00     0.167 C 
BRANCH  10  11
ATOM     11  C11 <0> d   1      -0.022   0.243  -4.953  0.00  0.00     0.166 C 
ATOM     12  O3  <0> d   1      -0.030   1.435  -4.735  0.00  0.00    -0.292 OA
BRANCH  11  13
ATOM     13  C12 <0> d   1      -0.030  -0.252  -6.338  0.00  0.00     0.010 A 
ATOM     14  C17 <0> d   1      -0.046   0.651  -7.407  0.00  0.00     0.017 A 
ATOM     15  C16 <0> d   1      -0.053   0.180  -8.702  0.00  0.00     0.025 A 
ATOM     16  C15 <0> d   1      -0.044  -1.183  -8.947  0.00  0.00     0.034 A 
ATOM     17  C14 <0> d   1      -0.028  -2.084  -7.894  0.00  0.00     0.025 A 
ATOM     18 Cl1  <0> d   1      -0.053  -1.767 -10.582  0.00  0.00    -0.084 Cl
ATOM     19  C13 <0> d   1      -0.015  -1.627  -6.594  0.00  0.00     0.017 A 
ENDBRANCH  11  13
ENDBRANCH  10  11
ENDBRANCH   8  10
ENDBRANCH   5   8
BRANCH   1  20
ATOM     20  N1  <0> d   1      -0.056   4.278  -4.926  0.00  0.00    -0.327 N 
ATOM     21  C2  <0> d   1       0.606   3.794  -5.995  0.00  0.00     0.218 C 
ATOM     22  C1  <0> d   1       0.675   4.599  -7.267  0.00  0.00     0.117 C 
ATOM     23  O1  <0> d   1       1.146   2.709  -5.933  0.00  0.00    -0.274 OA
ATOM     24  H4  <0> d   1      -0.610   5.226  -5.004  0.00  0.00     0.169 HD
ENDBRANCH   1  20
TORSDOF 5
