REMARK  3 active torsions:
REMARK  status: ('A' for Active; 'I' for Inactive)
REMARK    1  A    between atoms: C9_10  and  C10_11 
REMARK    2  A    between atoms: C14_15  and  O2_17 
REMARK    3  A    between atoms: N1_22  and  C20_25 
ROOT
ATOM      1  C1  <0> d   1      -0.883  10.219   1.812  0.00  0.00     0.054 C 
ATOM      2  C2  <0> d   1      -1.557  10.120   3.156  0.00  0.00     0.007 A 
ATOM      3  C3  <0> d   1      -1.835  11.273   3.878  0.00  0.00     0.087 A 
ATOM      4  C4  <0> d   1      -2.458  11.193   5.119  0.00  0.00     0.005 A 
ATOM      5  C5  <0> d   1      -2.799   9.973   5.638  0.00  0.00     0.030 A 
ATOM      6  C6  <0> d   1      -2.523   8.808   4.924  0.00  0.00     0.052 A 
ATOM      7  C7  <0> d   1      -1.896   8.875   3.669  0.00  0.00     0.099 A 
ATOM      8  O1  <0> d   1      -1.735   7.629   3.173  0.00  0.00    -0.305 OA
ATOM      9  C8  <0> d   1      -2.216   6.685   4.016  0.00  0.00     0.127 A 
ATOM     10  C9  <0> d   1      -2.203   5.345   3.809  0.00  0.00     0.053 C 
ATOM     11  C17 <0> d   1      -2.760   7.378   5.194  0.00  0.00     0.218 A 
ATOM     12  O3  <0> d   1      -3.287   6.882   6.175  0.00  0.00    -0.284 OA
ATOM     13  C18 <0> d   1      -2.770  12.440   5.907  0.00  0.00     0.317 C 
ATOM     14  N1  <0> d   1      -1.972  13.561   5.390  0.00  0.00     0.121 N 
ATOM     15  C19 <0> d   1      -2.094  13.637   3.925  0.00  0.00     0.448 C 
ATOM     16  O4  <0> d   1      -1.485  12.477   3.354  0.00  0.00    -0.320 OA
ENDROOT
BRANCH  10  17
ATOM     17  C10 <0> d   1      -1.525   4.790   2.628  0.00  0.00    -0.031 A 
ATOM     18  C15 <0> d   1      -1.004   5.644   1.651  0.00  0.00     0.048 A 
ATOM     19  C14 <0> d   1      -0.368   5.112   0.543  0.00  0.00     0.069 A 
ATOM     20  C13 <0> d   1      -0.253   3.736   0.400  0.00  0.00     0.037 A 
ATOM     21  C12 <0> d   1      -0.763   2.888   1.368  0.00  0.00     0.004 A 
ATOM     22  C11 <0> d   1      -1.399   3.404   2.477  0.00  0.00     0.011 A 
BRANCH  19  23
ATOM     23  O2  <0> d   1       0.140   5.938  -0.409  0.00  0.00    -0.356 OA
ATOM     24  C16 <0> d   1       0.784   5.322  -1.526  0.00  0.00     0.210 C 
ENDBRANCH  19  23
ENDBRANCH  10  17
BRANCH  14  25
ATOM     25  C20 <0> d   1      -2.373  14.826   6.019  0.00  0.00     0.240 C 
ATOM     26  C23 <0> d   1      -1.526  15.982   5.433  0.00  0.00     0.176 C 
ATOM     27  S1  <0> d   1      -1.393  17.145   6.851  0.00  0.00     0.146 S 
ATOM     28  C22 <0> d   1      -2.281  16.165   8.134  0.00  0.00     0.142 C 
ATOM     29  O5  <0> d   1      -0.027  17.265   7.224  0.00  0.00    -0.228 OA
ATOM     30  O6  <0> d   1      -2.145  18.316   6.561  0.00  0.00    -0.228 OA
ATOM     31  C21 <0> d   1      -2.151  14.734   7.538  0.00  0.00     0.052 C 
ENDBRANCH  14  25
TORSDOF 3
