REMARK  7 active torsions:
REMARK  status: ('A' for Active; 'I' for Inactive)
REMARK    1  A    between atoms: C8_9  and  C10_13 
REMARK    2  A    between atoms: C17_22  and  O6_34 
REMARK    3  A    between atoms: C18_23  and  C19_24 
REMARK    4  A    between atoms: C19_24  and  N1_25 
REMARK    5  A    between atoms: N2_28  and  C24_31 
REMARK    6  A    between atoms: C24_31  and  C25_32 
REMARK    7  A    between atoms: C25_32  and  O5_33 
ROOT
ATOM      1  C10 <0> d   1       0.375   5.989  -1.233  0.00  0.00    -0.001 A 
ATOM      2  C11 <0> d   1       0.754   6.920  -2.186  0.00  0.00     0.096 A 
ATOM      3  C12 <0> d   1       0.599   8.288  -1.915  0.00  0.00     0.289 A 
ATOM      4  O3  <0> d   1       0.931   9.101  -2.761  0.00  0.00    -0.260 OA
ATOM      5  O4  <0> d   1       0.100   8.728  -0.749  0.00  0.00    -0.274 OA
ATOM      6  C13 <0> d   1      -0.286   7.880   0.228  0.00  0.00     0.101 A 
ATOM      7  C14 <0> d   1      -0.170   6.492   0.041  0.00  0.00     0.010 A 
ATOM      8  C15 <0> d   1      -0.567   5.612   1.049  0.00  0.00     0.018 A 
ATOM      9  C16 <0> d   1      -1.069   6.104   2.221  0.00  0.00     0.038 A 
ATOM     10  C17 <0> d   1      -1.188   7.478   2.414  0.00  0.00     0.076 A 
ATOM     11  C18 <0> d   1      -0.798   8.364   1.423  0.00  0.00     0.038 A 
ENDROOT
BRANCH   1  12
ATOM     12  C8  <0> d   1       0.519   4.543  -1.482  0.00  0.00     0.052 A 
ATOM     13  C7  <0> d   1       1.770   3.977  -1.642  0.00  0.00     0.032 A 
ATOM     14  C4  <0> d   1       1.862   2.582  -1.880  0.00  0.00     0.001 A 
ATOM     15  C3  <0> d   1       0.695   1.800  -1.950  0.00  0.00     0.089 A 
ATOM     16  C5  <0> d   1       3.116   1.976  -2.046  0.00  0.00     0.038 A 
ATOM     17  C2  <0> d   1       0.801   0.434  -2.184  0.00  0.00     0.040 A 
ATOM     18  O2  <0> d   1      -0.524   2.363  -1.799  0.00  0.00    -0.274 OA
ATOM     19  C1  <0> d   1       2.041  -0.146  -2.345  0.00  0.00     0.026 A 
ATOM     20  C6  <0> d   1       3.196   0.622  -2.276  0.00  0.00     0.035 A 
ATOM     21 Cl1  <0> d   1       4.747  -0.130  -2.482  0.00  0.00    -0.084 Cl
ATOM     22  C9  <0> d   1      -0.664   3.678  -1.565  0.00  0.00     0.299 A 
ATOM     23  O1  <0> d   1      -1.776   4.155  -1.428  0.00  0.00    -0.259 OA
ENDBRANCH   1  12
BRANCH  11  24
ATOM     24  C19 <0> d   1      -0.930   9.849   1.642  0.00  0.00     0.317 C 
BRANCH  24  25
ATOM     25  N1  <0> d   1      -2.251  10.297   1.179  0.00  0.00     0.096 N 
ATOM     26  C23 <0> d   1      -2.510  11.684   1.589  0.00  0.00     0.303 C 
ATOM     27  C22 <0> d   1      -3.923  12.085   1.159  0.00  0.00     0.302 C 
ATOM     28  N2  <0> d   1      -4.049  11.937  -0.297  0.00  0.00     0.093 N 
ATOM     29  C21 <0> d   1      -3.790  10.549  -0.707  0.00  0.00     0.302 C 
ATOM     30  C20 <0> d   1      -2.377  10.149  -0.277  0.00  0.00     0.303 C 
BRANCH  28  31
ATOM     31  C24 <0> d   1      -5.370  12.384  -0.760  0.00  0.00     0.298 C 
BRANCH  31  32
ATOM     32  C25 <0> d   1      -5.418  13.913  -0.760  0.00  0.00     0.194 C 
BRANCH  32  33
ATOM     33  O5  <0> d   1      -4.484  14.420  -1.715  0.00  0.00    -0.399 OA
ATOM     34  H22 <0> d   1      -4.377  15.505  -1.858  0.00  0.00     0.209 HD
ENDBRANCH  32  33
ENDBRANCH  31  32
ENDBRANCH  28  31
ENDBRANCH  24  25
ENDBRANCH  11  24
BRANCH  10  35
ATOM     35  O6  <0> d   1      -1.689   7.953   3.583  0.00  0.00    -0.360 OA
ATOM     36  H23 <0> d   1      -1.784   9.037   3.740  0.00  0.00     0.217 HD
ENDBRANCH  10  35
TORSDOF 7
