REMARK  4 active torsions:
REMARK  status: ('A' for Active; 'I' for Inactive)
REMARK    1  A    between atoms: N2_5  and  C6_8 
REMARK    2  A    between atoms: C6_8  and  C7_9 
REMARK    3  A    between atoms: C8_10  and  O4_28 
REMARK    4  A    between atoms: C14_18  and  C16_21 
ROOT
ATOM      1  C7  <0> d   1      -0.018   1.503   0.010  0.00  0.00     0.038 A 
ATOM      2  C8  <0> d   1       1.171   2.214   0.003  0.00  0.00     0.076 A 
ATOM      3  C9  <0> d   1       1.163   3.606   0.010  0.00  0.00     0.038 A 
ATOM      4  C10 <0> d   1      -0.019   4.290   0.024  0.00  0.00     0.020 A 
ATOM      5  C11 <0> d   1      -1.228   3.588   0.032  0.00  0.00     0.036 A 
ATOM      6  C12 <0> d   1      -1.228   2.182   0.020  0.00  0.00     0.103 A 
ATOM      7  O1  <0> d   1      -2.395   1.503   0.033  0.00  0.00    -0.273 OA
ATOM      8  C13 <0> d   1      -3.582   2.129   0.048  0.00  0.00     0.302 A 
ATOM      9  O2  <0> d   1      -4.603   1.465   0.054  0.00  0.00    -0.259 OA
ATOM     10  C14 <0> d   1      -3.676   3.539   0.056  0.00  0.00     0.087 A 
ATOM     11  C15 <0> d   1      -2.512   4.299   0.048  0.00  0.00     0.137 A 
ATOM     12  O3  <0> d   1      -2.561   5.651   0.055  0.00  0.00    -0.190 OA
ENDROOT
BRANCH   1  13
ATOM     13  C6  <0> d   1       0.002  -0.004   0.002  0.00  0.00     0.317 C 
BRANCH  13  14
ATOM     14  N2  <0> d   1       0.022  -0.501   1.384  0.00  0.00     0.096 N 
ATOM     15  C3  <0> d   1      -0.196  -1.954   1.425  0.00  0.00     0.303 C 
ATOM     16  C2  <0> d   1      -0.248  -2.419   2.882  0.00  0.00     0.302 C 
ATOM     17  N1  <0> d   1       1.009  -2.059   3.553  0.00  0.00     0.087 N 
ATOM     18  C1  <0> d   1       1.029  -2.556   4.935  0.00  0.00     0.310 C 
ATOM     19  C5  <0> d   1       1.227  -0.606   3.513  0.00  0.00     0.302 C 
ATOM     20  C4  <0> d   1       1.279  -0.141   2.055  0.00  0.00     0.303 C 
ENDBRANCH  13  14
ENDBRANCH   1  13
BRANCH   2  21
ATOM     21  O4  <0> d   1       2.354   1.547  -0.011  0.00  0.00    -0.360 OA
ATOM     22  H20 <0> d   1       3.300   2.107  -0.017  0.00  0.00     0.217 HD
ENDBRANCH   2  21
BRANCH  10  23
ATOM     23  C16 <0> d   1      -5.002   4.200   0.071  0.00  0.00    -0.017 A 
ATOM     24  C21 <0> d   1      -5.866   4.061  -1.014  0.00  0.00     0.014 A 
ATOM     25  C20 <0> d   1      -7.099   4.679  -0.994  0.00  0.00     0.024 A 
ATOM     26  C19 <0> d   1      -7.480   5.436   0.101  0.00  0.00     0.034 A 
ATOM     27  C18 <0> d   1      -6.626   5.577   1.181  0.00  0.00     0.024 A 
ATOM     28 Cl1  <0> d   1      -9.033   6.211   0.119  0.00  0.00    -0.084 Cl
ATOM     29  C17 <0> d   1      -5.392   4.959   1.175  0.00  0.00     0.014 A 
ENDBRANCH  10  23
TORSDOF 4
