REMARK  7 active torsions:
REMARK  status: ('A' for Active; 'I' for Inactive)
REMARK    1  A    between atoms: C8_9  and  C9_11 
REMARK    2  A    between atoms: C15_18  and  O5_32 
REMARK    3  A    between atoms: C16_19  and  C18_22 
REMARK    4  A    between atoms: C18_22  and  N1_23 
REMARK    5  A    between atoms: N2_26  and  C23_29 
REMARK    6  A    between atoms: C23_29  and  C24_30 
REMARK    7  A    between atoms: C24_30  and  O4_31 
ROOT
ATOM      1  C9  <0> d   1       5.906   0.865  -0.049  0.00  0.00     0.078 C 
ATOM      2  C10 <0> d   1       6.530   2.076  -0.049  0.00  0.00     0.129 A 
ATOM      3  C11 <0> d   1       7.980   2.304  -0.067  0.00  0.00     0.218 A 
ATOM      4  O2  <0> d   1       8.867   1.468  -0.085  0.00  0.00    -0.284 OA
ATOM      5  C12 <0> d   1       8.123   3.772  -0.058  0.00  0.00     0.051 A 
ATOM      6  C13 <0> d   1       9.229   4.623  -0.067  0.00  0.00     0.021 A 
ATOM      7  C14 <0> d   1       9.046   5.976  -0.055  0.00  0.00     0.038 A 
ATOM      8  C15 <0> d   1       7.760   6.508  -0.033  0.00  0.00     0.076 A 
ATOM      9  C16 <0> d   1       6.653   5.675  -0.024  0.00  0.00     0.038 A 
ATOM     10  C17 <0> d   1       6.821   4.296  -0.037  0.00  0.00     0.101 A 
ATOM     11  O3  <0> d   1       5.924   3.286  -0.037  0.00  0.00    -0.305 OA
ENDROOT
BRANCH   1  12
ATOM     12  C8  <0> d   1       4.492   0.796  -0.036  0.00  0.00     0.079 A 
ATOM     13  C7  <0> d   1       3.759  -0.353  -0.036  0.00  0.00     0.051 A 
ATOM     14  C4  <0> d   1       2.394   0.030  -0.021  0.00  0.00     0.002 A 
ATOM     15  C3  <0> d   1       2.378   1.438  -0.013  0.00  0.00     0.086 A 
ATOM     16  C5  <0> d   1       1.190  -0.681  -0.013  0.00  0.00     0.033 A 
ATOM     17  C2  <0> d   1       1.160   2.104   0.002  0.00  0.00     0.039 A 
ATOM     18  O1  <0> d   1       3.660   1.860  -0.023  0.00  0.00    -0.310 OA
ATOM     19  C1  <0> d   1      -0.017   1.384   0.010  0.00  0.00     0.022 A 
ATOM     20  C6  <0> d   1       0.002  -0.004   0.002  0.00  0.00     0.011 A 
ATOM     21 Br1  <0> d   1      -1.627  -0.965   0.012  0.00  0.00    -0.051 Br
ENDBRANCH   1  12
BRANCH   9  22
ATOM     22  C18 <0> d   1       5.266   6.265   0.000  0.00  0.00     0.317 C 
BRANCH  22  23
ATOM     23  N1  <0> d   1       4.796   6.468  -1.377  0.00  0.00     0.096 N 
ATOM     24  C22 <0> d   1       3.369   6.816  -1.400  0.00  0.00     0.303 C 
ATOM     25  C21 <0> d   1       2.901   6.940  -2.852  0.00  0.00     0.302 C 
ATOM     26  N2  <0> d   1       3.701   7.965  -3.536  0.00  0.00     0.093 N 
ATOM     27  C20 <0> d   1       5.129   7.617  -3.513  0.00  0.00     0.302 C 
ATOM     28  C19 <0> d   1       5.597   7.493  -2.061  0.00  0.00     0.303 C 
BRANCH  26  29
ATOM     29  C23 <0> d   1       3.231   8.168  -4.913  0.00  0.00     0.298 C 
BRANCH  29  30
ATOM     30  C24 <0> d   1       1.823   8.767  -4.889  0.00  0.00     0.194 C 
BRANCH  30  31
ATOM     31  O4  <0> d   1       1.871  10.072  -4.310  0.00  0.00    -0.399 OA
ATOM     32  H22 <0> d   1       1.011  10.513  -4.262  0.00  0.00     0.209 HD
ENDBRANCH  30  31
ENDBRANCH  29  30
ENDBRANCH  26  29
ENDBRANCH  22  23
ENDBRANCH   9  22
BRANCH   8  33
ATOM     33  O5  <0> d   1       7.588   7.855  -0.020  0.00  0.00    -0.360 OA
ATOM     34  H23 <0> d   1       7.527   8.252  -0.899  0.00  0.00     0.217 HD
ENDBRANCH   8  33
TORSDOF 7
