REMARK  5 active torsions:
REMARK  status: ('A' for Active; 'I' for Inactive)
REMARK    1  A    between atoms: C4_4  and  C7_7 
REMARK    2  A    between atoms: C11_11  and  O2_29 
REMARK    3  A    between atoms: C12_12  and  C14_16 
REMARK    4  A    between atoms: C14_16  and  N2_17 
REMARK    5  A    between atoms: N3_20  and  C19_23 
ROOT
ATOM      1  C7  <0> d   1       3.772  -0.645   0.005  0.00  0.00     0.107 A 
ATOM      2  C8  <0> d   1       4.050  -1.934   0.658  0.00  0.00     0.033 A 
ATOM      3  C9  <0> d   1       3.284  -2.802   1.438  0.00  0.00     0.020 A 
ATOM      4  C10 <0> d   1       3.837  -3.956   1.915  0.00  0.00     0.038 A 
ATOM      5  C11 <0> d   1       5.163  -4.274   1.627  0.00  0.00     0.076 A 
ATOM      6  C12 <0> d   1       5.936  -3.425   0.856  0.00  0.00     0.038 A 
ATOM      7  C13 <0> d   1       5.386  -2.248   0.365  0.00  0.00     0.124 A 
ATOM      8  O1  <0> d   1       5.875  -1.246  -0.394  0.00  0.00    -0.211 OA
ATOM      9  N1  <0> d   1       4.867  -0.278  -0.606  0.00  0.00    -0.126 NA
ENDROOT
BRANCH   6  10
ATOM     10  C14 <0> d   1       7.369  -3.776   0.549  0.00  0.00     0.279 C 
BRANCH  10  11
ATOM     11  N2  <0> d   1       7.427  -4.557  -0.693  0.00  0.00    -0.064 N 
ATOM     12  C18 <0> d   1       8.807  -5.000  -0.927  0.00  0.00     0.255 C 
ATOM     13  C17 <0> d   1       8.848  -5.909  -2.160  0.00  0.00     0.152 C 
ATOM     14  N3  <0> d   1       8.242  -5.190  -3.291  0.00  0.00    -0.364 N 
ATOM     15  C16 <0> d   1       6.922  -4.571  -3.090  0.00  0.00     0.152 C 
ATOM     16  C15 <0> d   1       6.972  -3.724  -1.814  0.00  0.00     0.255 C 
ATOM     17  H24 <0> d   1       6.825  -5.363  -0.611  0.00  0.00     0.280 HD
BRANCH  14  18
ATOM     18  C19 <0> d   1       8.896  -5.098  -4.513  0.00  0.00     0.102 A 
ATOM     19  N4  <0> d   1       8.279  -4.550  -5.548  0.00  0.00    -0.352 N 
ATOM     20  C23 <0> d   1       8.867  -4.439  -6.725  0.00  0.00     0.089 A 
ATOM     21  H23 <0> d   1       7.374  -4.218  -5.438  0.00  0.00     0.166 HD
ATOM     22  C22 <0> d   1      10.151  -4.904  -6.921  0.00  0.00     0.017 A 
ATOM     23  C21 <0> d   1      10.832  -5.491  -5.862  0.00  0.00     0.005 A 
ATOM     24  C20 <0> d   1      10.192  -5.589  -4.640  0.00  0.00     0.048 A 
ENDBRANCH  14  18
ENDBRANCH  10  11
ENDBRANCH   6  10
BRANCH   5  25
ATOM     25  O2  <0> d   1       5.700  -5.425   2.109  0.00  0.00    -0.360 OA
ATOM     26  H22 <0> d   1       5.596  -6.184   1.519  0.00  0.00     0.217 HD
ENDBRANCH   5  25
BRANCH   1  27
ATOM     27  C4  <0> d   1       2.488   0.096   0.029  0.00  0.00    -0.004 A 
ATOM     28  C3  <0> d   1       2.485   1.490   0.049  0.00  0.00     0.014 A 
ATOM     29  C2  <0> d   1       1.286   2.174   0.071  0.00  0.00     0.001 A 
ATOM     30  C1  <0> d   1       0.090   1.479   0.074  0.00  0.00     0.000 A 
ATOM     31  C6  <0> d   1       0.087   0.096   0.055  0.00  0.00     0.001 A 
ATOM     32  C5  <0> d   1       1.280  -0.599   0.033  0.00  0.00     0.014 A 
ENDBRANCH   1  27
TORSDOF 5
