REMARK  6 active torsions:
REMARK  status: ('A' for Active; 'I' for Inactive)
REMARK    1  A    between atoms: C4_4  and  O5_31 
REMARK    2  A    between atoms: C5_5  and  C19_23 
REMARK    3  A    between atoms: C10_11  and  C11_12 
REMARK    4  A    between atoms: C15_16  and  O3_20 
REMARK    5  A    between atoms: C16_17  and  O2_18 
REMARK    6  A    between atoms: C19_23  and  N1_24 
ROOT
ATOM      1  C1  <0> d   1       2.622   1.092  -0.666  0.00  0.00     0.049 C 
ATOM      2  C2  <0> d   1       1.303   1.813  -0.768  0.00  0.00    -0.042 A 
ATOM      3  C3  <0> d   1       0.160   1.115  -1.038  0.00  0.00     0.045 A 
ATOM      4  C4  <0> d   1      -1.059   1.780  -1.137  0.00  0.00     0.077 A 
ATOM      5  C5  <0> d   1      -1.131   3.151  -0.953  0.00  0.00     0.038 A 
ATOM      6  C6  <0> d   1       0.022   3.877  -0.678  0.00  0.00     0.102 A 
ATOM      7  C7  <0> d   1       1.246   3.195  -0.586  0.00  0.00     0.057 A 
ATOM      8  C8  <0> d   1       2.268   4.216  -0.290  0.00  0.00     0.219 A 
ATOM      9  O1  <0> d   1       3.465   4.049  -0.131  0.00  0.00    -0.284 OA
ATOM     10  C9  <0> d   1       1.520   5.480  -0.230  0.00  0.00     0.128 A 
ATOM     11  C10 <0> d   1       2.041   6.709   0.019  0.00  0.00     0.055 C 
ATOM     12  O4  <0> d   1       0.218   5.196  -0.467  0.00  0.00    -0.305 OA
ENDROOT
BRANCH  11  13
ATOM     13  C11 <0> d   1       1.189   7.900  -0.078  0.00  0.00     0.003 A 
ATOM     14  C16 <0> d   1       1.767   9.174  -0.189  0.00  0.00     0.111 A 
ATOM     15  C15 <0> d   1       0.949  10.294  -0.280  0.00  0.00     0.102 A 
ATOM     16  C14 <0> d   1      -0.428  10.150  -0.261  0.00  0.00     0.040 A 
ATOM     17  C13 <0> d   1      -1.000   8.893  -0.152  0.00  0.00     0.004 A 
ATOM     18  C12 <0> d   1      -0.206   7.771  -0.067  0.00  0.00     0.014 A 
BRANCH  14  19
ATOM     19  O2  <0> d   1       3.118   9.312  -0.206  0.00  0.00    -0.352 OA
ATOM     20  C17 <0> d   1       3.758   9.270  -1.483  0.00  0.00     0.210 C 
ENDBRANCH  14  19
BRANCH  15  21
ATOM     21  O3  <0> d   1       1.502  11.533  -0.386  0.00  0.00    -0.353 OA
ATOM     22  C18 <0> d   1       0.602  12.639  -0.476  0.00  0.00     0.210 C 
ENDBRANCH  15  21
ENDBRANCH  11  13
BRANCH   5  23
ATOM     23  C19 <0> d   1      -2.458   3.857  -1.058  0.00  0.00     0.317 C 
BRANCH  23  24
ATOM     24  N1  <0> d   1      -2.683   4.273  -2.449  0.00  0.00     0.096 N 
ATOM     25  C23 <0> d   1      -4.060   4.750  -2.639  0.00  0.00     0.300 C 
ATOM     26  C22 <0> d   1      -4.277   5.098  -4.114  0.00  0.00     0.264 C 
ATOM     27  N2  <0> d   1      -3.306   6.124  -4.520  0.00  0.00    -0.072 N 
ATOM     28  C21 <0> d   1      -1.929   5.647  -4.330  0.00  0.00     0.264 C 
ATOM     29  C24 <0> d   1      -3.531   6.540  -5.911  0.00  0.00     0.269 C 
ATOM     30  H28 <0> d   1      -3.453   7.005  -3.877  0.00  0.00     0.279 HD
ATOM     31  C20 <0> d   1      -1.712   5.299  -2.855  0.00  0.00     0.300 C 
ENDBRANCH  23  24
ENDBRANCH   5  23
BRANCH   4  32
ATOM     32  O5  <0> d   1      -2.188   1.078  -1.411  0.00  0.00    -0.360 OA
ATOM     33  H29 <0> d   1      -3.154   1.599  -1.491  0.00  0.00     0.217 HD
ENDBRANCH   4  32
TORSDOF 6
