REMARK  4 active torsions:
REMARK  status: ('A' for Active; 'I' for Inactive)
REMARK    1  A    between atoms: C6_6  and  C11_13 
REMARK    2  A    between atoms: C11_13  and  N1_14 
REMARK    3  A    between atoms: N2_17  and  C16_20 
REMARK    4  A    between atoms: C16_20  and  C17_21 
ROOT
ATOM      1  N1  <0> d   1      -1.908  -5.064  -1.849  0.00  0.00     0.096 N 
ATOM      2  C12 <0> d   1      -2.695  -3.894  -2.262  0.00  0.00     0.300 C 
ATOM      3  C13 <0> d   1      -4.135  -4.326  -2.549  0.00  0.00     0.265 C 
ATOM      4  N2  <0> d   1      -4.138  -5.341  -3.612  0.00  0.00    -0.064 N 
ATOM      5  C14 <0> d   1      -3.369  -6.513  -3.175  0.00  0.00     0.265 C 
ATOM      6  C15 <0> d   1      -1.923  -6.098  -2.893  0.00  0.00     0.300 C 
ATOM      7  H27 <0> d   1      -3.720  -4.956  -4.445  0.00  0.00     0.280 HD
ENDROOT
BRANCH   1   8
ATOM      8  C11 <0> d   1      -0.532  -4.679  -1.508  0.00  0.00     0.312 C 
BRANCH   8   9
ATOM      9  C6  <0> d   1      -0.550  -3.725  -0.343  0.00  0.00    -0.011 A 
ATOM     10  C5  <0> d   1      -1.140  -4.115   0.941  0.00  0.00     0.012 A 
ATOM     11  C4  <0> d   1      -1.702  -5.383   1.121  0.00  0.00    -0.048 A 
ATOM     12  C9  <0> d   1      -1.136  -3.193   2.002  0.00  0.00     0.091 A 
ATOM     13  C3  <0> d   1      -2.245  -5.718   2.330  0.00  0.00     0.014 A 
ATOM     14  C24 <0> d   1      -1.709  -6.375  -0.013  0.00  0.00     0.049 C 
ATOM     15  C2  <0> d   1      -2.243  -4.810   3.379  0.00  0.00    -0.059 A 
ATOM     16  C1  <0> d   1      -2.847  -5.199   4.704  0.00  0.00     0.048 C 
ATOM     17  C10 <0> d   1      -1.698  -3.553   3.220  0.00  0.00     0.045 A 
ATOM     18  O2  <0> d   1      -0.593  -1.969   1.827  0.00  0.00    -0.275 OA
ATOM     19  C8  <0> d   1      -0.051  -1.604   0.654  0.00  0.00     0.288 A 
ATOM     20  C7  <0> d   1      -0.021  -2.480  -0.453  0.00  0.00     0.092 A 
ATOM     21  O1  <0> d   1       0.427  -0.490   0.543  0.00  0.00    -0.260 OA
ENDBRANCH   8   9
ENDBRANCH   1   8
BRANCH   4  22
ATOM     22  C16 <0> d   1      -5.522  -5.742  -3.900  0.00  0.00     0.273 C 
BRANCH  22  23
ATOM     23  C17 <0> d   1      -5.536  -6.690  -5.072  0.00  0.00    -0.030 A 
ATOM     24  C22 <0> d   1      -5.429  -8.052  -4.859  0.00  0.00     0.048 A 
ATOM     25  C21 <0> d   1      -5.447  -8.925  -5.934  0.00  0.00     0.105 A 
ATOM     26  C20 <0> d   1      -5.562  -8.427  -7.229  0.00  0.00     0.105 A 
ATOM     27  O3  <0> d   1      -5.363 -10.286  -5.996  0.00  0.00    -0.323 OA
ATOM     28  C19 <0> d   1      -5.663  -7.061  -7.436  0.00  0.00     0.040 A 
ATOM     29  O4  <0> d   1      -5.550  -9.476  -8.103  0.00  0.00    -0.323 OA
ATOM     30  C18 <0> d   1      -5.650  -6.196  -6.358  0.00  0.00     0.012 A 
ATOM     31  C23 <0> d   1      -5.838 -10.641  -7.308  0.00  0.00     0.352 C 
ENDBRANCH  22  23
ENDBRANCH   4  22
TORSDOF 4
