REMARK  4 active torsions:
REMARK  status: ('A' for Active; 'I' for Inactive)
REMARK    1  A    between atoms: N2_5  and  C6_8 
REMARK    2  A    between atoms: C6_8  and  C7_9 
REMARK    3  A    between atoms: C8_10  and  O3_27 
REMARK    4  A    between atoms: C14_17  and  C15_18 
ROOT
ATOM      1  C7  <0> d   1       4.028   0.907   1.744  0.00  0.00     0.038 A 
ATOM      2  C8  <0> d   1       5.113   0.584   0.946  0.00  0.00     0.076 A 
ATOM      3  C9  <0> d   1       6.333   1.233   1.112  0.00  0.00     0.038 A 
ATOM      4  C10 <0> d   1       6.474   2.192   2.076  0.00  0.00     0.021 A 
ATOM      5  C11 <0> d   1       5.392   2.524   2.890  0.00  0.00     0.051 A 
ATOM      6  C12 <0> d   1       4.154   1.879   2.729  0.00  0.00     0.101 A 
ATOM      7  O1  <0> d   1       3.267   2.364   3.624  0.00  0.00    -0.305 OA
ATOM      8  C13 <0> d   1       3.816   3.319   4.411  0.00  0.00     0.128 A 
ATOM      9  C14 <0> d   1       3.189   3.998   5.403  0.00  0.00     0.054 C 
ATOM     10  C21 <0> d   1       5.217   3.486   3.993  0.00  0.00     0.218 A 
ATOM     11  O2  <0> d   1       6.047   4.250   4.455  0.00  0.00    -0.284 OA
ENDROOT
BRANCH   1  12
ATOM     12  C6  <0> d   1       2.712   0.199   1.550  0.00  0.00     0.317 C 
BRANCH  12  13
ATOM     13  N2  <0> d   1       1.897   0.940   0.577  0.00  0.00     0.096 N 
ATOM     14  C3  <0> d   1       1.903   2.379   0.873  0.00  0.00     0.300 C 
ATOM     15  C2  <0> d   1       1.111   3.122  -0.206  0.00  0.00     0.264 C 
ATOM     16  N1  <0> d   1      -0.263   2.602  -0.246  0.00  0.00    -0.072 N 
ATOM     17  C1  <0> d   1      -1.078   3.342  -1.219  0.00  0.00     0.269 C 
ATOM     18  C5  <0> d   1      -0.269   1.162  -0.542  0.00  0.00     0.264 C 
ATOM     19  H22 <0> d   1      -0.711   2.747   0.748  0.00  0.00     0.279 HD
ATOM     20  C4  <0> d   1       0.523   0.419   0.536  0.00  0.00     0.300 C 
ENDBRANCH  12  13
ENDBRANCH   1  12
BRANCH   2  21
ATOM     21  O3  <0> d   1       4.984  -0.371  -0.010  0.00  0.00    -0.360 OA
ATOM     22  H21 <0> d   1       5.843  -0.632  -0.647  0.00  0.00     0.217 HD
ENDBRANCH   2  21
BRANCH   9  23
ATOM     23  C15 <0> d   1       1.745   3.824   5.615  0.00  0.00    -0.016 A 
ATOM     24  C20 <0> d   1       1.028   4.754   6.376  0.00  0.00     0.021 A 
ATOM     25  C19 <0> d   1      -0.329   4.585   6.565  0.00  0.00     0.020 A 
ATOM     26 Br1  <0> d   1       1.913   6.242   7.138  0.00  0.00    -0.050 Br
ATOM     27  C18 <0> d   1      -0.977   3.495   6.013  0.00  0.00     0.001 A 
ATOM     28  C17 <0> d   1      -0.273   2.567   5.263  0.00  0.00     0.001 A 
ATOM     29  C16 <0> d   1       1.081   2.723   5.061  0.00  0.00     0.013 A 
ENDBRANCH   9  23
TORSDOF 4
