REMARK  4 active torsions:
REMARK  status: ('A' for Active; 'I' for Inactive)
REMARK    1  A    between atoms: C5_5  and  C18_21 
REMARK    2  A    between atoms: C10_11  and  C11_12 
REMARK    3  A    between atoms: C15_16  and  O2_18 
REMARK    4  A    between atoms: C18_21  and  N1_22 
ROOT
ATOM      1  C1  <0> d   1       2.486   1.039  -0.079  0.00  0.00     0.049 C 
ATOM      2  C2  <0> d   1       1.170   1.773  -0.073  0.00  0.00    -0.042 A 
ATOM      3  C3  <0> d   1      -0.004   1.074  -0.092  0.00  0.00     0.048 A 
ATOM      4  C4  <0> d   1      -1.221   1.750  -0.093  0.00  0.00     0.118 A 
ATOM      5  C5  <0> d   1      -1.258   3.135  -0.062  0.00  0.00     0.041 A 
ATOM      6  C6  <0> d   1      -0.073   3.861  -0.043  0.00  0.00     0.102 A 
ATOM      7  C7  <0> d   1       1.148   3.168  -0.049  0.00  0.00     0.057 A 
ATOM      8  C8  <0> d   1       2.208   4.192  -0.026  0.00  0.00     0.219 A 
ATOM      9  O1  <0> d   1       3.413   4.018  -0.023  0.00  0.00    -0.284 OA
ATOM     10  C9  <0> d   1       1.482   5.473  -0.007  0.00  0.00     0.128 A 
ATOM     11  C10 <0> d   1       2.038   6.709   0.017  0.00  0.00     0.053 C 
ATOM     12  O3  <0> d   1       0.158   5.192  -0.019  0.00  0.00    -0.305 OA
ATOM     13  O5  <0> d   1      -2.381   1.047  -0.118  0.00  0.00    -0.191 OA
ENDROOT
BRANCH  11  14
ATOM     14  C11 <0> d   1       1.184   7.902  -0.080  0.00  0.00    -0.031 A 
ATOM     15  C16 <0> d   1      -0.208   7.772  -0.068  0.00  0.00     0.048 A 
ATOM     16  C15 <0> d   1      -1.004   8.900  -0.159  0.00  0.00     0.069 A 
ATOM     17  C14 <0> d   1      -0.421  10.156  -0.263  0.00  0.00     0.037 A 
ATOM     18  C13 <0> d   1       0.956  10.288  -0.276  0.00  0.00     0.004 A 
ATOM     19  C12 <0> d   1       1.761   9.173  -0.179  0.00  0.00     0.011 A 
BRANCH  16  20
ATOM     20  O2  <0> d   1      -2.358   8.778  -0.148  0.00  0.00    -0.356 OA
ATOM     21  C17 <0> d   1      -3.118   9.984  -0.246  0.00  0.00     0.210 C 
ENDBRANCH  16  20
ENDBRANCH  11  14
BRANCH   5  22
ATOM     22  C18 <0> d   1      -2.582   3.854  -0.057  0.00  0.00     0.317 C 
BRANCH  22  23
ATOM     23  N1  <0> d   1      -3.005   4.111  -1.440  0.00  0.00     0.097 N 
ATOM     24  C22 <0> d   1      -4.393   4.593  -1.486  0.00  0.00     0.299 C 
ATOM     25  C21 <0> d   1      -4.811   4.791  -2.945  0.00  0.00     0.198 C 
ATOM     26  O4  <0> d   1      -3.902   5.696  -3.578  0.00  0.00    -0.388 OA
ATOM     27  C20 <0> d   1      -2.541   5.256  -3.553  0.00  0.00     0.198 C 
ATOM     28  C19 <0> d   1      -2.100   5.064  -2.100  0.00  0.00     0.299 C 
ENDBRANCH  22  23
ENDBRANCH   5  22
TORSDOF 4
