REMARK  4 active torsions:
REMARK  status: ('A' for Active; 'I' for Inactive)
REMARK    1  A    between atoms: C7_7  and  C8_8 
REMARK    2  A    between atoms: C14_15  and  O3_27 
REMARK    3  A    between atoms: C15_16  and  C17_19 
REMARK    4  A    between atoms: C17_19  and  N1_20 
ROOT
ATOM      1  C8  <0> d   1       3.189   3.998   5.404  0.00  0.00     0.053 C 
ATOM      2  C9  <0> d   1       3.816   3.318   4.412  0.00  0.00     0.128 A 
ATOM      3  C10 <0> d   1       5.217   3.487   3.992  0.00  0.00     0.218 A 
ATOM      4  O1  <0> d   1       6.046   4.253   4.452  0.00  0.00    -0.284 OA
ATOM      5  C11 <0> d   1       5.391   2.523   2.891  0.00  0.00     0.051 A 
ATOM      6  C12 <0> d   1       6.473   2.192   2.075  0.00  0.00     0.021 A 
ATOM      7  C13 <0> d   1       6.333   1.233   1.113  0.00  0.00     0.038 A 
ATOM      8  C14 <0> d   1       5.113   0.580   0.949  0.00  0.00     0.076 A 
ATOM      9  C15 <0> d   1       4.029   0.903   1.748  0.00  0.00     0.038 A 
ATOM     10  C16 <0> d   1       4.155   1.877   2.731  0.00  0.00     0.101 A 
ATOM     11  O2  <0> d   1       3.268   2.361   3.627  0.00  0.00    -0.305 OA
ENDROOT
BRANCH   9  12
ATOM     12  C17 <0> d   1       2.713   0.194   1.555  0.00  0.00     0.317 C 
BRANCH  12  13
ATOM     13  N1  <0> d   1       1.897   0.932   0.582  0.00  0.00     0.096 N 
ATOM     14  C21 <0> d   1       1.901   2.372   0.876  0.00  0.00     0.300 C 
ATOM     15  C20 <0> d   1       1.107   3.112  -0.203  0.00  0.00     0.264 C 
ATOM     16  N2  <0> d   1      -0.266   2.590  -0.242  0.00  0.00    -0.072 N 
ATOM     17  C19 <0> d   1      -0.271   1.150  -0.535  0.00  0.00     0.264 C 
ATOM     18  C22 <0> d   1      -1.083   3.328  -1.214  0.00  0.00     0.269 C 
ATOM     19  H25 <0> d   1      -0.713   2.736   0.753  0.00  0.00     0.279 HD
ATOM     20  C18 <0> d   1       0.523   0.410   0.543  0.00  0.00     0.300 C 
ENDBRANCH  12  13
ENDBRANCH   9  12
BRANCH   8  21
ATOM     21  O3  <0> d   1       4.985  -0.376  -0.005  0.00  0.00    -0.360 OA
ATOM     22  H24 <0> d   1       4.024  -0.895  -0.139  0.00  0.00     0.217 HD
ENDBRANCH   8  21
BRANCH   1  23
ATOM     23  C7  <0> d   1       1.745   3.823   5.615  0.00  0.00    -0.028 A 
ATOM     24  C2  <0> d   1       1.028   4.752   6.377  0.00  0.00    -0.052 A 
ATOM     25  C1  <0> d   1       1.734   5.938   6.983  0.00  0.00     0.049 C 
ATOM     26  C3  <0> d   1      -0.328   4.584   6.566  0.00  0.00     0.007 A 
ATOM     27  C4  <0> d   1      -0.977   3.493   6.014  0.00  0.00     0.001 A 
ATOM     28  C5  <0> d   1      -0.274   2.566   5.265  0.00  0.00     0.001 A 
ATOM     29  C6  <0> d   1       1.081   2.722   5.061  0.00  0.00     0.012 A 
ENDBRANCH   1  23
TORSDOF 4
