REMARK  8 active torsions:
REMARK  status: ('A' for Active; 'I' for Inactive)
REMARK    1  A    between atoms: C2_2  and  O1_3 
REMARK    2  A    between atoms: O1_3  and  C3_4 
REMARK    3  A    between atoms: C5_6  and  O2_7 
REMARK    4  A    between atoms: C6_8  and  C7_9 
REMARK    5  A    between atoms: C8_10  and  O3_16 
REMARK    6  A    between atoms: C10_13  and  N3_15 
REMARK    7  A    between atoms: O3_16  and  C11_17 
REMARK    8  A    between atoms: C14_20  and  O4_23 
ROOT
ATOM      1  C7  <0> d   1       1.139  -6.044   1.750  0.00  0.00     0.124 A 
ATOM      2  C8  <0> d   1       0.521  -6.907   0.834  0.00  0.00     0.124 A 
ATOM      3  C9  <0> d   1       0.686  -8.274   1.002  0.00  0.00     0.176 A 
ATOM      4  N1  <0> d   1       1.416  -8.718   2.014  0.00  0.00    -0.073 NA
ATOM      5  C10 <0> d   1       1.988  -7.878   2.864  0.00  0.00     0.720 A 
ATOM      6  N2  <0> d   1       1.863  -6.566   2.739  0.00  0.00    -0.060 NA
ENDROOT
BRANCH   1   7
ATOM      7  C6  <0> d   1       0.996  -4.577   1.617  0.00  0.00     0.029 A 
ATOM      8  C5  <0> d   1       0.651  -3.801   2.730  0.00  0.00     0.081 A 
ATOM      9  C4  <0> d   1       0.518  -2.429   2.598  0.00  0.00     0.074 A 
ATOM     10  C3  <0> d   1       0.726  -1.827   1.366  0.00  0.00     0.071 A 
ATOM     11  C19 <0> d   1       1.062  -2.597   0.259  0.00  0.00     0.038 A 
ATOM     12  C18 <0> d   1       1.203  -3.963   0.382  0.00  0.00     0.019 A 
BRANCH   8  13
ATOM     13  O2  <0> d   1       0.447  -4.392   3.936  0.00  0.00    -0.360 OA
ATOM     14  H19 <0> d   1      -0.468  -4.665   4.090  0.00  0.00     0.217 HD
ENDBRANCH   8  13
BRANCH  10  15
ATOM     15  O1  <0> d   1       0.595  -0.481   1.239  0.00  0.00    -0.351 OA
BRANCH  15  16
ATOM     16  C2  <0> d   1       0.817   0.073  -0.059  0.00  0.00     0.171 C 
ATOM     17  C1  <0> d   1       0.625   1.590  -0.005  0.00  0.00     0.034 C 
ENDBRANCH  15  16
ENDBRANCH  10  15
ENDBRANCH   1   7
BRANCH   2  18
ATOM     18  O3  <0> d   1      -0.223  -6.417  -0.194  0.00  0.00    -0.307 OA
BRANCH  18  19
ATOM     19  C11 <0> d   1      -0.893  -7.303  -0.977  0.00  0.00     0.076 A 
ATOM     20  C16 <0> d   1      -0.416  -7.610  -2.242  0.00  0.00     0.040 A 
ATOM     21  C15 <0> d   1      -1.095  -8.514  -3.036  0.00  0.00     0.039 A 
ATOM     22  C14 <0> d   1      -2.260  -9.107  -2.571  0.00  0.00     0.068 A 
ATOM     23  C13 <0> d   1      -2.740  -8.795  -1.308  0.00  0.00     0.039 A 
ATOM     24  C12 <0> d   1      -2.059  -7.895  -0.512  0.00  0.00     0.040 A 
BRANCH  22  25
ATOM     25  O4  <0> d   1      -2.931  -9.993  -3.354  0.00  0.00    -0.356 OA
ATOM     26  C17 <0> d   1      -2.380 -10.267  -4.644  0.00  0.00     0.210 C 
ENDBRANCH  22  25
ENDBRANCH  18  19
ENDBRANCH   2  18
BRANCH   5  27
ATOM     27  N3  <0> d   1       2.744  -8.387   3.909  0.00  0.00    -0.231 N 
ATOM     28  H8  <0> d   1       2.847  -9.346   4.010  0.00  0.00     0.174 HD
ATOM     29  H9  <0> d   1       3.168  -7.784   4.538  0.00  0.00     0.174 HD
ENDBRANCH   5  27
TORSDOF 8
