REMARK  4 active torsions:
REMARK  status: ('A' for Active; 'I' for Inactive)
REMARK    1  A    between atoms: C4_4  and  O3_28 
REMARK    2  A    between atoms: C5_5  and  C17_20 
REMARK    3  A    between atoms: C10_11  and  C11_12 
REMARK    4  A    between atoms: C17_20  and  N1_21 
ROOT
ATOM      1  C1  <0> d   1       2.486   1.039  -0.079  0.00  0.00     0.049 C 
ATOM      2  C2  <0> d   1       1.170   1.773  -0.073  0.00  0.00    -0.042 A 
ATOM      3  C3  <0> d   1      -0.004   1.074  -0.092  0.00  0.00     0.045 A 
ATOM      4  C4  <0> d   1      -1.221   1.750  -0.092  0.00  0.00     0.077 A 
ATOM      5  C5  <0> d   1      -1.258   3.135  -0.062  0.00  0.00     0.038 A 
ATOM      6  C6  <0> d   1      -0.073   3.861  -0.044  0.00  0.00     0.102 A 
ATOM      7  C7  <0> d   1       1.148   3.168  -0.049  0.00  0.00     0.057 A 
ATOM      8  C8  <0> d   1       2.208   4.192  -0.026  0.00  0.00     0.219 A 
ATOM      9  O1  <0> d   1       3.413   4.018  -0.022  0.00  0.00    -0.284 OA
ATOM     10  C9  <0> d   1       1.482   5.473  -0.008  0.00  0.00     0.128 A 
ATOM     11  C10 <0> d   1       2.038   6.709   0.017  0.00  0.00     0.053 C 
ATOM     12  O2  <0> d   1       0.158   5.192  -0.020  0.00  0.00    -0.305 OA
ENDROOT
BRANCH   5  13
ATOM     13  C17 <0> d   1      -2.582   3.854  -0.057  0.00  0.00     0.317 C 
BRANCH  13  14
ATOM     14  N1  <0> d   1      -3.005   4.111  -1.440  0.00  0.00     0.096 N 
ATOM     15  C21 <0> d   1      -4.393   4.594  -1.485  0.00  0.00     0.300 C 
ATOM     16  C20 <0> d   1      -4.820   4.773  -2.944  0.00  0.00     0.264 C 
ATOM     17  N2  <0> d   1      -3.914   5.723  -3.604  0.00  0.00    -0.072 N 
ATOM     18  C19 <0> d   1      -2.526   5.240  -3.559  0.00  0.00     0.264 C 
ATOM     19  C22 <0> d   1      -4.337   5.980  -4.987  0.00  0.00     0.269 C 
ATOM     20  H23 <0> d   1      -3.960   6.675  -3.055  0.00  0.00     0.279 HD
ATOM     21  C18 <0> d   1      -2.099   5.061  -2.100  0.00  0.00     0.300 C 
ENDBRANCH  13  14
ENDBRANCH   5  13
BRANCH   4  22
ATOM     22  O3  <0> d   1      -2.381   1.047  -0.116  0.00  0.00    -0.360 OA
ATOM     23  H24 <0> d   1      -3.346   1.576  -0.116  0.00  0.00     0.217 HD
ENDBRANCH   4  22
BRANCH  11  24
ATOM     24  C11 <0> d   1       1.185   7.902  -0.080  0.00  0.00    -0.030 A 
ATOM     25  C16 <0> d   1       1.760   9.173  -0.179  0.00  0.00     0.053 A 
ATOM     26  C15 <0> d   1       0.951  10.287  -0.275  0.00  0.00     0.117 A 
ATOM     27  C14 <0> d   1      -0.428  10.149  -0.263  0.00  0.00     0.042 A 
ATOM     28  F1  <0> d   1       1.504  11.516  -0.375  0.00  0.00    -0.206 F 
ATOM     29  C13 <0> d   1      -1.004   8.894  -0.160  0.00  0.00     0.004 A 
ATOM     30  C12 <0> d   1      -0.209   7.772  -0.069  0.00  0.00     0.011 A 
ENDBRANCH  11  24
TORSDOF 4
