REMARK  3 active torsions:
REMARK  status: ('A' for Active; 'I' for Inactive)
REMARK    1  A    between atoms: C5_5  and  C16_19 
REMARK    2  A    between atoms: C10_11  and  C11_12 
REMARK    3  A    between atoms: C16_19  and  N2_20 
ROOT
ATOM      1  C1  <0> d   1      -0.024   5.799  -0.025  0.00  0.00     0.049 C 
ATOM      2  C2  <0> d   1      -0.019   4.293  -0.038  0.00  0.00    -0.042 A 
ATOM      3  C3  <0> d   1       1.165   3.612  -0.072  0.00  0.00     0.048 A 
ATOM      4  C4  <0> d   1       1.172   2.220  -0.084  0.00  0.00     0.118 A 
ATOM      5  C5  <0> d   1      -0.018   1.509  -0.062  0.00  0.00     0.041 A 
ATOM      6  C6  <0> d   1      -1.231   2.185  -0.033  0.00  0.00     0.102 A 
ATOM      7  C7  <0> d   1      -1.224   3.590  -0.015  0.00  0.00     0.057 A 
ATOM      8  C8  <0> d   1      -2.636   4.011   0.023  0.00  0.00     0.219 A 
ATOM      9  O1  <0> d   1      -3.075   5.147   0.043  0.00  0.00    -0.284 OA
ATOM     10  C9  <0> d   1      -3.398   2.749   0.030  0.00  0.00     0.128 A 
ATOM     11  C10 <0> d   1      -4.747   2.627   0.061  0.00  0.00     0.053 C 
ATOM     12  O2  <0> d   1      -2.504   1.734   0.000  0.00  0.00    -0.305 OA
ATOM     13  O4  <0> d   1       2.353   1.553  -0.119  0.00  0.00    -0.191 OA
ENDROOT
BRANCH   5  14
ATOM     14  C16 <0> d   1       0.004   0.002  -0.076  0.00  0.00     0.317 C 
BRANCH  14  15
ATOM     15  N2  <0> d   1       0.045  -0.499   1.304  0.00  0.00     0.097 N 
ATOM     16  C20 <0> d   1      -0.171  -1.953   1.343  0.00  0.00     0.299 C 
ATOM     17  C19 <0> d   1      -0.181  -2.424   2.799  0.00  0.00     0.198 C 
ATOM     18  O3  <0> d   1       1.046  -2.042   3.427  0.00  0.00    -0.388 OA
ATOM     19  C18 <0> d   1       1.288  -0.632   3.408  0.00  0.00     0.198 C 
ATOM     20  C17 <0> d   1       1.313  -0.143   1.957  0.00  0.00     0.299 C 
ENDBRANCH  14  15
ENDBRANCH   5  14
BRANCH  11  21
ATOM     21  C11 <0> d   1      -5.368   1.298  -0.050  0.00  0.00    -0.031 A 
ATOM     22  C15 <0> d   1      -4.586   0.134  -0.066  0.00  0.00     0.030 A 
ATOM     23  C14 <0> d   1      -5.212  -1.090  -0.172  0.00  0.00     0.117 A 
ATOM     24  N1  <0> d   1      -6.525  -1.175  -0.258  0.00  0.00    -0.273 NA
ATOM     25  C13 <0> d   1      -7.300  -0.107  -0.247  0.00  0.00     0.117 A 
ATOM     26  C12 <0> d   1      -6.761   1.158  -0.139  0.00  0.00     0.030 A 
ENDBRANCH  11  21
TORSDOF 3
