REMARK  4 active torsions:
REMARK  status: ('A' for Active; 'I' for Inactive)
REMARK    1  A    between atoms: C5_5  and  C12_14 
REMARK    2  A    between atoms: C12_14  and  N1_15 
REMARK    3  A    between atoms: N2_18  and  C17_21 
REMARK    4  A    between atoms: C17_21  and  C18_22 
ROOT
ATOM      1  C12 <0> d   1       0.013  -2.109  -3.782  0.00  0.00     0.312 C 
ENDROOT
BRANCH   1   2
ATOM      2  C5  <0> d   1       0.029  -2.824  -2.455  0.00  0.00    -0.011 A 
ATOM      3  C4  <0> d   1       0.025  -2.074  -1.195  0.00  0.00     0.007 A 
ATOM      4  C3  <0> d   1       0.006  -0.676  -1.188  0.00  0.00     0.022 A 
ATOM      5  C8  <0> d   1       0.040  -2.781   0.019  0.00  0.00     0.090 A 
ATOM      6  C2  <0> d   1       0.002  -0.004   0.002  0.00  0.00    -0.055 A 
ATOM      7  C1  <0> d   1      -0.018   1.503   0.010  0.00  0.00     0.049 C 
ATOM      8  C10 <0> d   1       0.023  -0.699   1.202  0.00  0.00    -0.053 A 
ATOM      9  C9  <0> d   1       0.036  -2.078   1.217  0.00  0.00     0.045 A 
ATOM     10  C11 <0> d   1       0.025   0.061   2.504  0.00  0.00     0.049 C 
ATOM     11  O2  <0> d   1       0.059  -4.131   0.011  0.00  0.00    -0.275 OA
ATOM     12  C7  <0> d   1       0.063  -4.825  -1.138  0.00  0.00     0.288 A 
ATOM     13  C6  <0> d   1       0.049  -4.179  -2.393  0.00  0.00     0.092 A 
ATOM     14  O1  <0> d   1       0.080  -6.042  -1.097  0.00  0.00    -0.260 OA
ENDBRANCH   1   2
BRANCH   1  15
ATOM     15  N1  <0> d   1      -1.373  -1.790  -4.149  0.00  0.00     0.096 N 
ATOM     16  C16 <0> d   1      -1.417  -0.891  -5.311  0.00  0.00     0.303 C 
ATOM     17  C15 <0> d   1      -2.871  -0.520  -5.611  0.00  0.00     0.303 C 
ATOM     18  N2  <0> d   1      -3.643  -1.744  -5.868  0.00  0.00     0.096 N 
ATOM     19  C14 <0> d   1      -3.599  -2.644  -4.706  0.00  0.00     0.303 C 
ATOM     20  C13 <0> d   1      -2.145  -3.014  -4.405  0.00  0.00     0.303 C 
BRANCH  18  21
ATOM     21  C17 <0> d   1      -5.029  -1.426  -6.235  0.00  0.00     0.311 C 
BRANCH  21  22
ATOM     22  C18 <0> d   1      -5.045  -0.711  -7.562  0.00  0.00    -0.030 A 
ATOM     23  C23 <0> d   1      -5.145  -1.435  -8.735  0.00  0.00     0.009 A 
ATOM     24  C22 <0> d   1      -5.164  -0.779  -9.952  0.00  0.00     0.001 A 
ATOM     25  C21 <0> d   1      -5.075   0.600  -9.996  0.00  0.00     0.000 A 
ATOM     26  C20 <0> d   1      -4.970   1.323  -8.822  0.00  0.00     0.001 A 
ATOM     27  C19 <0> d   1      -4.955   0.668  -7.605  0.00  0.00     0.009 A 
ENDBRANCH  21  22
ENDBRANCH  18  21
ENDBRANCH   1  15
TORSDOF 4
