REMARK  8 active torsions:
REMARK  status: ('A' for Active; 'I' for Inactive)
REMARK    1  A    between atoms: C2_2  and  N1_3 
REMARK    2  A    between atoms: N2_6  and  C7_9 
REMARK    3  A    between atoms: C7_9  and  C8_10 
REMARK    4  A    between atoms: C9_11  and  O4_28 
REMARK    5  A    between atoms: C12_14  and  C14_17 
REMARK    6  A    between atoms: C14_17  and  C15_19 
REMARK    7  A    between atoms: C15_19  and  C16_20 
REMARK    8  A    between atoms: C19_23  and  O3_26 
ROOT
ATOM      1  C8  <0> d   1      -4.616   3.936   3.298  0.00  0.00     0.041 A 
ATOM      2  C9  <0> d   1      -5.399   4.376   2.240  0.00  0.00     0.076 A 
ATOM      3  C10 <0> d   1      -4.994   4.153   0.926  0.00  0.00     0.038 A 
ATOM      4  C11 <0> d   1      -3.821   3.506   0.665  0.00  0.00     0.021 A 
ATOM      5  C12 <0> d   1      -3.021   3.050   1.722  0.00  0.00     0.047 A 
ATOM      6  C13 <0> d   1      -3.427   3.273   3.050  0.00  0.00     0.131 A 
ATOM      7  O1  <0> d   1      -2.659   2.841   4.080  0.00  0.00    -0.190 OA
ENDROOT
BRANCH   5   8
ATOM      8  C14 <0> d   1      -1.764   2.350   1.444  0.00  0.00     0.166 C 
ATOM      9  O2  <0> d   1      -1.072   1.961   2.361  0.00  0.00    -0.292 OA
BRANCH   8  10
ATOM     10  C15 <0> d   1      -1.333   2.113   0.020  0.00  0.00     0.122 C 
BRANCH  10  11
ATOM     11  C16 <0> d   1      -0.017   1.378   0.010  0.00  0.00    -0.051 A 
ATOM     12  C21 <0> d   1       0.002  -0.004   0.002  0.00  0.00     0.010 A 
ATOM     13  C20 <0> d   1       1.207  -0.680  -0.013  0.00  0.00     0.037 A 
ATOM     14  C19 <0> d   1       2.399   0.030  -0.021  0.00  0.00     0.068 A 
ATOM     15  C18 <0> d   1       2.377   1.417  -0.013  0.00  0.00     0.037 A 
ATOM     16  C17 <0> d   1       1.170   2.088   0.002  0.00  0.00     0.010 A 
BRANCH  14  17
ATOM     17  O3  <0> d   1       3.586  -0.632  -0.035  0.00  0.00    -0.356 OA
ATOM     18  C22 <0> d   1       4.772   0.164  -0.042  0.00  0.00     0.210 C 
ENDBRANCH  14  17
ENDBRANCH  10  11
ENDBRANCH   8  10
ENDBRANCH   5   8
BRANCH   1  19
ATOM     19  C7  <0> d   1      -5.062   4.180   4.717  0.00  0.00     0.317 C 
BRANCH  19  20
ATOM     20  N2  <0> d   1      -4.531   5.469   5.182  0.00  0.00     0.096 N 
ATOM     21  C4  <0> d   1      -5.133   5.853   6.467  0.00  0.00     0.300 C 
ATOM     22  C3  <0> d   1      -4.615   7.234   6.876  0.00  0.00     0.265 C 
ATOM     23  N1  <0> d   1      -3.149   7.196   6.975  0.00  0.00    -0.068 N 
ATOM     24  C6  <0> d   1      -2.548   6.811   5.690  0.00  0.00     0.265 C 
ATOM     25  H28 <0> d   1      -2.879   6.432   7.719  0.00  0.00     0.280 HD
ATOM     26  C5  <0> d   1      -3.065   5.430   5.281  0.00  0.00     0.300 C 
BRANCH  23  27
ATOM     27  C2  <0> d   1      -2.619   8.484   7.440  0.00  0.00     0.230 C 
ATOM     28  C1  <0> d   1      -1.132   8.335   7.768  0.00  0.00     0.034 C 
ENDBRANCH  23  27
ENDBRANCH  19  20
ENDBRANCH   1  19
BRANCH   2  29
ATOM     29  O4  <0> d   1      -6.564   5.026   2.486  0.00  0.00    -0.360 OA
ATOM     30  H27 <0> d   1      -7.186   5.375   1.649  0.00  0.00     0.217 HD
ENDBRANCH   2  29
TORSDOF 8
