REMARK  3 active torsions:
REMARK  status: ('A' for Active; 'I' for Inactive)
REMARK    1  A    between atoms: C5_5  and  C17_20 
REMARK    2  A    between atoms: C10_11  and  C11_12 
REMARK    3  A    between atoms: C17_20  and  N1_21 
ROOT
ATOM      1  C1  <0> d   1       2.486   1.039  -0.079  0.00  0.00     0.049 C 
ATOM      2  C2  <0> d   1       1.170   1.773  -0.073  0.00  0.00    -0.042 A 
ATOM      3  C3  <0> d   1      -0.004   1.074  -0.092  0.00  0.00     0.048 A 
ATOM      4  C4  <0> d   1      -1.221   1.750  -0.092  0.00  0.00     0.118 A 
ATOM      5  C5  <0> d   1      -1.258   3.135  -0.063  0.00  0.00     0.041 A 
ATOM      6  C6  <0> d   1      -0.073   3.861  -0.044  0.00  0.00     0.102 A 
ATOM      7  C7  <0> d   1       1.148   3.168  -0.049  0.00  0.00     0.057 A 
ATOM      8  C8  <0> d   1       2.208   4.192  -0.026  0.00  0.00     0.219 A 
ATOM      9  O1  <0> d   1       3.413   4.018  -0.022  0.00  0.00    -0.284 OA
ATOM     10  C9  <0> d   1       1.482   5.473  -0.008  0.00  0.00     0.128 A 
ATOM     11  C10 <0> d   1       2.038   6.709   0.017  0.00  0.00     0.053 C 
ATOM     12  O2  <0> d   1       0.158   5.192  -0.020  0.00  0.00    -0.305 OA
ATOM     13  O4  <0> d   1      -2.381   1.047  -0.116  0.00  0.00    -0.191 OA
ENDROOT
BRANCH  11  14
ATOM     14  C11 <0> d   1       1.185   7.902  -0.080  0.00  0.00    -0.030 A 
ATOM     15  C16 <0> d   1       1.760   9.173  -0.179  0.00  0.00     0.053 A 
ATOM     16  C15 <0> d   1       0.951  10.287  -0.275  0.00  0.00     0.117 A 
ATOM     17  C14 <0> d   1      -0.428  10.149  -0.263  0.00  0.00     0.042 A 
ATOM     18  F1  <0> d   1       1.504  11.516  -0.375  0.00  0.00    -0.206 F 
ATOM     19  C13 <0> d   1      -1.004   8.894  -0.160  0.00  0.00     0.004 A 
ATOM     20  C12 <0> d   1      -0.209   7.772  -0.069  0.00  0.00     0.011 A 
ENDBRANCH  11  14
BRANCH   5  21
ATOM     21  C17 <0> d   1      -2.582   3.854  -0.057  0.00  0.00     0.317 C 
BRANCH  21  22
ATOM     22  N1  <0> d   1      -3.005   4.111  -1.440  0.00  0.00     0.097 N 
ATOM     23  C21 <0> d   1      -4.393   4.594  -1.486  0.00  0.00     0.299 C 
ATOM     24  C20 <0> d   1      -4.812   4.792  -2.945  0.00  0.00     0.198 C 
ATOM     25  O3  <0> d   1      -3.903   5.696  -3.578  0.00  0.00    -0.388 OA
ATOM     26  C19 <0> d   1      -2.542   5.257  -3.553  0.00  0.00     0.198 C 
ATOM     27  C18 <0> d   1      -2.100   5.064  -2.100  0.00  0.00     0.299 C 
ENDBRANCH  21  22
ENDBRANCH   5  21
TORSDOF 3
