REMARK  5 active torsions:
REMARK  status: ('A' for Active; 'I' for Inactive)
REMARK    1  A    between atoms: C3_3  and  O4_22 
REMARK    2  A    between atoms: C9_10  and  C11_13 
REMARK    3  A    between atoms: C11_13  and  N1_14 
REMARK    4  A    between atoms: O4_22  and  C17_23 
REMARK    5  A    between atoms: C21_27  and  O5_29 
ROOT
ATOM      1  C1  <0> d   1      -3.788   6.102   0.074  0.00  0.00     0.079 C 
ATOM      2  C2  <0> d   1      -2.453   5.403   0.056  0.00  0.00     0.086 A 
ATOM      3  C3  <0> d   1      -1.318   6.147   0.049  0.00  0.00     0.142 A 
ATOM      4  C4  <0> d   1      -0.063   5.512   0.033  0.00  0.00     0.156 A 
ATOM      5  C5  <0> d   1      -0.031   4.100   0.024  0.00  0.00     0.038 A 
ATOM      6  C6  <0> d   1       1.190   3.404   0.009  0.00  0.00     0.020 A 
ATOM      7  C7  <0> d   1       1.196   2.046   0.002  0.00  0.00     0.041 A 
ATOM      8  C8  <0> d   1      -0.016   1.330   0.009  0.00  0.00     0.118 A 
ATOM      9  O1  <0> d   1       0.002  -0.004   0.002  0.00  0.00    -0.191 OA
ATOM     10  C9  <0> d   1      -1.238   2.008   0.019  0.00  0.00     0.041 A 
ATOM     11  C10 <0> d   1      -1.254   3.390   0.032  0.00  0.00     0.100 A 
ATOM     12  O2  <0> d   1      -2.421   4.065   0.048  0.00  0.00    -0.311 OA
ATOM     13  O3  <0> d   1       1.079   6.232   0.026  0.00  0.00    -0.188 OA
ENDROOT
BRANCH   3  14
ATOM     14  O4  <0> d   1      -1.394   7.506   0.057  0.00  0.00    -0.305 OA
BRANCH  14  15
ATOM     15  C17 <0> d   1      -1.418   8.136   1.260  0.00  0.00     0.079 A 
ATOM     16  C22 <0> d   1      -1.495   9.519   1.317  0.00  0.00     0.074 A 
ATOM     17  C21 <0> d   1      -1.519  10.160   2.547  0.00  0.00     0.070 A 
ATOM     18  C20 <0> d   1      -1.466   9.415   3.717  0.00  0.00     0.037 A 
ATOM     19  C19 <0> d   1      -1.389   8.037   3.657  0.00  0.00     0.005 A 
ATOM     20  C18 <0> d   1      -1.371   7.396   2.434  0.00  0.00     0.037 A 
BRANCH  17  21
ATOM     21  O5  <0> d   1      -1.595  11.515   2.606  0.00  0.00    -0.356 OA
ATOM     22  C23 <0> d   1      -1.615  12.107   3.906  0.00  0.00     0.210 C 
ENDBRANCH  17  21
ENDBRANCH  14  15
ENDBRANCH   3  14
BRANCH  10  23
ATOM     23  C11 <0> d   1      -2.532   1.236   0.020  0.00  0.00     0.317 C 
BRANCH  23  24
ATOM     24  N1  <0> d   1      -2.946   0.977   1.406  0.00  0.00     0.096 N 
ATOM     25  C15 <0> d   1      -4.313   0.439   1.455  0.00  0.00     0.303 C 
ATOM     26  C14 <0> d   1      -4.734   0.258   2.915  0.00  0.00     0.302 C 
ATOM     27  N2  <0> d   1      -3.791  -0.646   3.587  0.00  0.00     0.087 N 
ATOM     28  C13 <0> d   1      -2.424  -0.108   3.537  0.00  0.00     0.302 C 
ATOM     29  C16 <0> d   1      -4.205  -0.905   4.972  0.00  0.00     0.310 C 
ATOM     30  C12 <0> d   1      -2.002   0.072   2.077  0.00  0.00     0.303 C 
ENDBRANCH  23  24
ENDBRANCH  10  23
TORSDOF 5
