REMARK  4 active torsions:
REMARK  status: ('A' for Active; 'I' for Inactive)
REMARK    1  A    between atoms: C7_7  and  C8_8 
REMARK    2  A    between atoms: C8_8  and  N1_9 
REMARK    3  A    between atoms: C16_20  and  C17_21 
REMARK    4  A    between atoms: C20_24  and  O3_27 
ROOT
ATOM      1  C1  <0> d   1      -9.982   2.683   0.571  0.00  0.00     0.049 C 
ATOM      2  C2  <0> d   1      -9.397   1.296   0.500  0.00  0.00    -0.049 A 
ATOM      3  C3  <0> d   1      -8.031   1.137   0.367  0.00  0.00     0.045 A 
ATOM      4  C4  <0> d   1      -7.475  -0.135   0.301  0.00  0.00     0.094 A 
ATOM      5  C5  <0> d   1      -8.322  -1.252   0.372  0.00  0.00     0.088 A 
ATOM      6  C6  <0> d   1      -9.704  -1.083   0.507  0.00  0.00     0.132 A 
ATOM      7  C7  <0> d   1     -10.234   0.196   0.571  0.00  0.00     0.011 A 
ATOM      8  O1  <0> d   1     -10.521  -2.164   0.576  0.00  0.00    -0.190 OA
ATOM      9  C14 <0> d   1      -7.455  -2.439   0.277  0.00  0.00     0.221 A 
ATOM     10  O2  <0> d   1      -7.789  -3.611   0.299  0.00  0.00    -0.284 OA
ATOM     11  C15 <0> d   1      -6.096  -1.893   0.151  0.00  0.00     0.128 A 
ATOM     12  C16 <0> d   1      -4.950  -2.613   0.034  0.00  0.00     0.053 C 
ATOM     13  O4  <0> d   1      -6.193  -0.543   0.179  0.00  0.00    -0.306 OA
ENDROOT
BRANCH   7  14
ATOM     14  C8  <0> d   1     -11.721   0.390   0.718  0.00  0.00     0.277 C 
BRANCH  14  15
ATOM     15  N1  <0> d   1     -12.338   0.467  -0.613  0.00  0.00    -0.064 N 
ATOM     16  C12 <0> d   1     -13.804   0.417  -0.517  0.00  0.00     0.265 C 
ATOM     17  C11 <0> d   1     -14.405   0.419  -1.925  0.00  0.00     0.299 C 
ATOM     18  N2  <0> d   1     -13.968   1.626  -2.639  0.00  0.00     0.087 N 
ATOM     19  C10 <0> d   1     -12.502   1.676  -2.735  0.00  0.00     0.299 C 
ATOM     20  C13 <0> d   1     -14.585   1.703  -3.970  0.00  0.00     0.310 C 
ATOM     21  C9  <0> d   1     -11.901   1.674  -1.328  0.00  0.00     0.265 C 
ATOM     22  H26 <0> d   1     -12.006  -0.409  -1.190  0.00  0.00     0.280 HD
ENDBRANCH  14  15
ENDBRANCH   7  14
BRANCH  12  23
ATOM     23  C17 <0> d   1      -3.651  -1.929   0.029  0.00  0.00    -0.033 A 
ATOM     24  C22 <0> d   1      -2.465  -2.673   0.039  0.00  0.00     0.014 A 
ATOM     25  C21 <0> d   1      -1.250  -2.027   0.030  0.00  0.00     0.037 A 
ATOM     26  C20 <0> d   1      -1.198  -0.637   0.022  0.00  0.00     0.068 A 
ATOM     27  C19 <0> d   1      -2.373   0.107   0.012  0.00  0.00     0.037 A 
ATOM     28  C18 <0> d   1      -3.594  -0.529   0.016  0.00  0.00     0.014 A 
BRANCH  26  29
ATOM     29  O3  <0> d   1       0.003  -0.005   0.019  0.00  0.00    -0.356 OA
ATOM     30  C23 <0> d   1       1.170  -0.829   0.029  0.00  0.00     0.210 C 
ENDBRANCH  26  29
ENDBRANCH  12  23
TORSDOF 4
