REMARK  8 active torsions:
REMARK  status: ('A' for Active; 'I' for Inactive)
REMARK    1  A    between atoms: C3_3  and  O5_24 
REMARK    2  A    between atoms: C9_10  and  C11_13 
REMARK    3  A    between atoms: C11_13  and  N1_14 
REMARK    4  A    between atoms: N2_17  and  C16_20 
REMARK    5  A    between atoms: C16_20  and  C17_21 
REMARK    6  A    between atoms: C17_21  and  O3_22 
REMARK    7  A    between atoms: O5_24  and  C18_25 
REMARK    8  A    between atoms: C22_29  and  O6_31 
ROOT
ATOM      1  C1  <0> d   1      -3.921   2.292  -0.108  0.00  0.00     0.080 C 
ATOM      2  C2  <0> d   1      -2.538   2.890  -0.066  0.00  0.00     0.087 A 
ATOM      3  C3  <0> d   1      -2.415   4.232  -0.052  0.00  0.00     0.156 A 
ATOM      4  C4  <0> d   1      -1.118   4.818   0.000  0.00  0.00     0.221 A 
ATOM      5  O1  <0> d   1      -0.968   6.028   0.015  0.00  0.00    -0.284 OA
ATOM      6  C5  <0> d   1       0.035   3.901   0.017  0.00  0.00     0.052 A 
ATOM      7  C6  <0> d   1       1.345   4.381   0.050  0.00  0.00     0.021 A 
ATOM      8  C7  <0> d   1       2.388   3.501   0.064  0.00  0.00     0.041 A 
ATOM      9  C8  <0> d   1       2.152   2.127   0.046  0.00  0.00     0.118 A 
ATOM     10  C9  <0> d   1       0.858   1.636   0.013  0.00  0.00     0.039 A 
ATOM     11  C10 <0> d   1      -0.213   2.518  -0.008  0.00  0.00     0.101 A 
ATOM     12  O2  <0> d   1      -1.483   2.066  -0.045  0.00  0.00    -0.311 OA
ATOM     13  O4  <0> d   1       3.200   1.264   0.061  0.00  0.00    -0.191 OA
ENDROOT
BRANCH  10  14
ATOM     14  C11 <0> d   1       0.615   0.149  -0.006  0.00  0.00     0.279 C 
BRANCH  14  15
ATOM     15  N1  <0> d   1       0.505  -0.348   1.372  0.00  0.00    -0.064 N 
ATOM     16  C15 <0> d   1       0.035  -1.740   1.395  0.00  0.00     0.265 C 
ATOM     17  C14 <0> d   1      -0.141  -2.192   2.846  0.00  0.00     0.300 C 
ATOM     18  N2  <0> d   1       1.138  -2.060   3.557  0.00  0.00     0.093 N 
ATOM     19  C13 <0> d   1       1.609  -0.668   3.534  0.00  0.00     0.300 C 
ATOM     20  C12 <0> d   1       1.785  -0.215   2.083  0.00  0.00     0.265 C 
ATOM     21  H28 <0> d   1      -0.239   0.271   1.895  0.00  0.00     0.280 HD
BRANCH  18  22
ATOM     22  C16 <0> d   1       1.029  -2.556   4.935  0.00  0.00     0.298 C 
BRANCH  22  23
ATOM     23  C17 <0> d   1       1.020  -4.086   4.927  0.00  0.00     0.194 C 
BRANCH  23  24
ATOM     24  O3  <0> d   1       2.275  -4.568   4.443  0.00  0.00    -0.399 OA
ATOM     25  H20 <0> d   1       2.456  -5.650   4.365  0.00  0.00     0.209 HD
ENDBRANCH  23  24
ENDBRANCH  22  23
ENDBRANCH  18  22
ENDBRANCH  14  15
ENDBRANCH  10  14
BRANCH   3  26
ATOM     26  O5  <0> d   1      -3.523   5.022  -0.075  0.00  0.00    -0.304 OA
BRANCH  26  27
ATOM     27  C18 <0> d   1      -4.075   5.382   1.114  0.00  0.00     0.079 A 
ATOM     28  C23 <0> d   1      -5.204   6.186   1.139  0.00  0.00     0.074 A 
ATOM     29  C22 <0> d   1      -5.765   6.552   2.354  0.00  0.00     0.070 A 
ATOM     30  C21 <0> d   1      -5.195   6.112   3.540  0.00  0.00     0.037 A 
ATOM     31  C20 <0> d   1      -4.069   5.311   3.512  0.00  0.00     0.005 A 
ATOM     32  C19 <0> d   1      -3.511   4.941   2.303  0.00  0.00     0.037 A 
BRANCH  29  33
ATOM     33  O6  <0> d   1      -6.872   7.339   2.382  0.00  0.00    -0.356 OA
ATOM     34  C24 <0> d   1      -7.396   7.676   3.668  0.00  0.00     0.210 C 
ENDBRANCH  29  33
ENDBRANCH  26  27
ENDBRANCH   3  26
TORSDOF 8
