REMARK  5 active torsions:
REMARK  status: ('A' for Active; 'I' for Inactive)
REMARK    1  A    between atoms: C2_2  and  N1_3 
REMARK    2  A    between atoms: N2_6  and  C7_9 
REMARK    3  A    between atoms: C7_9  and  C8_10 
REMARK    4  A    between atoms: C9_11  and  O5_31 
REMARK    5  A    between atoms: C15_18  and  C17_21 
ROOT
ATOM      1  C8  <0> d   1      -7.212  -3.041  -0.150  0.00  0.00     0.035 A 
ATOM      2  C9  <0> d   1      -8.255  -2.815   0.732  0.00  0.00     0.076 A 
ATOM      3  C10 <0> d   1      -8.157  -1.824   1.706  0.00  0.00     0.038 A 
ATOM      4  C11 <0> d   1      -7.028  -1.062   1.804  0.00  0.00     0.021 A 
ATOM      5  C12 <0> d   1      -5.969  -1.277   0.922  0.00  0.00     0.050 A 
ATOM      6  C13 <0> d   1      -6.057  -2.275  -0.065  0.00  0.00     0.100 A 
ATOM      7  O1  <0> d   1      -5.032  -2.482  -0.915  0.00  0.00    -0.320 OA
ATOM      8  C14 <0> d   1      -3.900  -1.774  -0.887  0.00  0.00     0.159 A 
ATOM      9  C15 <0> d   1      -3.680  -0.785   0.018  0.00  0.00     0.048 A 
ATOM     10  C16 <0> d   1      -4.735  -0.474   0.997  0.00  0.00     0.197 A 
ATOM     11  O2  <0> d   1      -4.596   0.406   1.829  0.00  0.00    -0.286 OA
ENDROOT
BRANCH   1  12
ATOM     12  C7  <0> d   1      -7.329  -4.116  -1.199  0.00  0.00     0.279 C 
BRANCH  12  13
ATOM     13  N2  <0> d   1      -6.822  -5.385  -0.660  0.00  0.00    -0.064 N 
ATOM     14  C4  <0> d   1      -7.136  -6.503  -1.560  0.00  0.00     0.265 C 
ATOM     15  C3  <0> d   1      -6.663  -7.813  -0.926  0.00  0.00     0.300 C 
ATOM     16  N1  <0> d   1      -5.218  -7.737  -0.669  0.00  0.00     0.091 N 
ATOM     17  C6  <0> d   1      -4.904  -6.618   0.231  0.00  0.00     0.300 C 
ATOM     18  C5  <0> d   1      -5.378  -5.308  -0.403  0.00  0.00     0.265 C 
ATOM     19  H27 <0> d   1      -7.329  -5.569   0.300  0.00  0.00     0.280 HD
BRANCH  16  20
ATOM     20  C2  <0> d   1      -4.711  -9.005  -0.130  0.00  0.00     0.268 C 
ATOM     21  C1  <0> d   1      -3.181  -8.976  -0.109  0.00  0.00     0.037 C 
ENDBRANCH  16  20
ENDBRANCH  12  13
ENDBRANCH   1  12
BRANCH   2  22
ATOM     22  O5  <0> d   1      -9.382  -3.566   0.647  0.00  0.00    -0.360 OA
ATOM     23  H26 <0> d   1     -10.214  -3.390   1.345  0.00  0.00     0.217 HD
ENDBRANCH   2  22
BRANCH   9  24
ATOM     24  C17 <0> d   1      -2.403  -0.030   0.016  0.00  0.00    -0.017 A 
ATOM     25  C22 <0> d   1      -1.189  -0.712   0.004  0.00  0.00     0.052 A 
ATOM     26  C21 <0> d   1       0.002  -0.004   0.002  0.00  0.00     0.102 A 
ATOM     27  C20 <0> d   1      -0.017   1.387   0.010  0.00  0.00     0.102 A 
ATOM     28  O3  <0> d   1       1.181  -0.685  -0.007  0.00  0.00    -0.346 OA
ATOM     29  C19 <0> d   1      -1.228   2.065   0.019  0.00  0.00     0.040 A 
ATOM     30  O4  <0> d   1       1.144   2.098   0.002  0.00  0.00    -0.346 OA
ATOM     31  C18 <0> d   1      -2.416   1.364   0.026  0.00  0.00     0.015 A 
ATOM     32  C24 <0> d   1       2.335   1.391   0.365  0.00  0.00     0.202 C 
ATOM     33  C23 <0> d   1       2.347   0.053  -0.387  0.00  0.00     0.202 C 
ENDBRANCH   9  24
TORSDOF 5
