REMARK  5 active torsions:
REMARK  status: ('A' for Active; 'I' for Inactive)
REMARK    1  A    between atoms: C9_10  and  C10_11 
REMARK    2  A    between atoms: C13_14  and  O3_19 
REMARK    3  A    between atoms: C14_15  and  O2_17 
REMARK    4  A    between atoms: N1_24  and  C21_27 
REMARK    5  A    between atoms: C21_27  and  C22_28 
ROOT
ATOM      1  C1  <0> d   1       2.825  -0.975  -6.092  0.00  0.00     0.054 C 
ATOM      2  C2  <0> d   1       3.929  -0.742  -5.093  0.00  0.00     0.007 A 
ATOM      3  C3  <0> d   1       3.616  -0.393  -3.786  0.00  0.00     0.087 A 
ATOM      4  C4  <0> d   1       4.627  -0.176  -2.855  0.00  0.00     0.005 A 
ATOM      5  C5  <0> d   1       5.938  -0.305  -3.223  0.00  0.00     0.030 A 
ATOM      6  C6  <0> d   1       6.265  -0.655  -4.532  0.00  0.00     0.052 A 
ATOM      7  C7  <0> d   1       5.254  -0.878  -5.482  0.00  0.00     0.099 A 
ATOM      8  O1  <0> d   1       5.809  -1.203  -6.670  0.00  0.00    -0.305 OA
ATOM      9  C8  <0> d   1       7.161  -1.220  -6.606  0.00  0.00     0.127 A 
ATOM     10  C9  <0> d   1       8.009  -1.508  -7.627  0.00  0.00     0.053 C 
ATOM     11  C18 <0> d   1       7.545  -0.871  -5.231  0.00  0.00     0.218 A 
ATOM     12  O4  <0> d   1       8.670  -0.779  -4.771  0.00  0.00    -0.284 OA
ATOM     13  C19 <0> d   1       4.296   0.201  -1.433  0.00  0.00     0.317 C 
ATOM     14  N1  <0> d   1       2.909   0.681  -1.360  0.00  0.00     0.120 N 
ATOM     15  C20 <0> d   1       2.008  -0.267  -2.037  0.00  0.00     0.448 C 
ATOM     16  O5  <0> d   1       2.310  -0.264  -3.434  0.00  0.00    -0.320 OA
ENDROOT
BRANCH  10  17
ATOM     17  C10 <0> d   1       7.476  -1.954  -8.920  0.00  0.00    -0.031 A 
ATOM     18  C15 <0> d   1       8.348  -2.373  -9.932  0.00  0.00     0.051 A 
ATOM     19  C14 <0> d   1       7.840  -2.791 -11.146  0.00  0.00     0.102 A 
ATOM     20  C13 <0> d   1       6.462  -2.795 -11.362  0.00  0.00     0.101 A 
ATOM     21  C12 <0> d   1       5.596  -2.380 -10.359  0.00  0.00     0.040 A 
ATOM     22  C11 <0> d   1       6.093  -1.967  -9.143  0.00  0.00     0.014 A 
BRANCH  19  23
ATOM     23  O2  <0> d   1       8.683  -3.199 -12.132  0.00  0.00    -0.353 OA
ATOM     24  C16 <0> d   1      10.082  -3.170 -11.842  0.00  0.00     0.210 C 
ENDBRANCH  19  23
BRANCH  20  25
ATOM     25  O3  <0> d   1       5.965  -3.207 -12.557  0.00  0.00    -0.353 OA
ATOM     26  C17 <0> d   1       4.545  -3.186 -12.712  0.00  0.00     0.210 C 
ENDBRANCH  20  25
ENDBRANCH  10  17
BRANCH  14  27
ATOM     27  C21 <0> d   1       2.498   0.893   0.034  0.00  0.00     0.315 C 
BRANCH  27  28
ATOM     28  C22 <0> d   1       1.173   1.611   0.064  0.00  0.00    -0.013 A 
ATOM     29  C26 <0> d   1      -0.009   0.896   0.070  0.00  0.00     0.125 A 
ATOM     30  N2  <0> d   1      -1.173   1.517   0.090  0.00  0.00    -0.273 NA
ATOM     31  C25 <0> d   1      -1.256   2.833   0.117  0.00  0.00     0.116 A 
ATOM     32  C24 <0> d   1      -0.115   3.614   0.113  0.00  0.00     0.020 A 
ATOM     33  C23 <0> d   1       1.126   2.997   0.085  0.00  0.00     0.012 A 
ENDBRANCH  27  28
ENDBRANCH  14  27
TORSDOF 5
