REMARK  3 active torsions:
REMARK  status: ('A' for Active; 'I' for Inactive)
REMARK    1  A    between atoms: C2_2  and  N1_3 
REMARK    2  A    between atoms: N2_6  and  C7_9 
REMARK    3  A    between atoms: C7_9  and  C8_10 
ROOT
ATOM      1  C8  <0> d   1       3.239  -3.972  -3.942  0.00  0.00    -0.014 A 
ATOM      2  C9  <0> d   1       2.255  -4.603  -4.632  0.00  0.00     0.092 A 
ATOM      3  C10 <0> d   1       2.236  -6.013  -4.696  0.00  0.00     0.288 A 
ATOM      4  O1  <0> d   1       1.348  -6.567  -5.318  0.00  0.00    -0.260 OA
ATOM      5  O2  <0> d   1       3.171  -6.759  -4.088  0.00  0.00    -0.275 OA
ATOM      6  C11 <0> d   1       4.176  -6.194  -3.385  0.00  0.00     0.090 A 
ATOM      7  C12 <0> d   1       4.260  -4.794  -3.285  0.00  0.00     0.006 A 
ATOM      8  C13 <0> d   1       5.303  -4.207  -2.562  0.00  0.00     0.021 A 
ATOM      9  C14 <0> d   1       6.246  -5.007  -1.957  0.00  0.00    -0.061 A 
ATOM     10  C15 <0> d   1       6.164  -6.388  -2.061  0.00  0.00     0.009 A 
ATOM     11  C16 <0> d   1       5.135  -6.981  -2.762  0.00  0.00     0.039 A 
ATOM     12  C17 <0> d   1       7.372  -4.379  -1.177  0.00  0.00     0.048 C 
ENDROOT
BRANCH   1  13
ATOM     13  C7  <0> d   1       3.284  -2.468  -3.858  0.00  0.00     0.274 C 
BRANCH  13  14
ATOM     14  N2  <0> d   1       2.630  -2.027  -2.620  0.00  0.00    -0.064 N 
ATOM     15  C4  <0> d   1       2.779  -0.572  -2.479  0.00  0.00     0.265 C 
ATOM     16  C3  <0> d   1       2.114  -0.114  -1.179  0.00  0.00     0.300 C 
ATOM     17  N1  <0> d   1       0.690  -0.478  -1.207  0.00  0.00     0.091 N 
ATOM     18  C6  <0> d   1       0.525  -1.929  -1.372  0.00  0.00     0.300 C 
ATOM     19  C5  <0> d   1       1.203  -2.372  -2.670  0.00  0.00     0.265 C 
ATOM     20  H23 <0> d   1       3.059  -2.486  -1.831  0.00  0.00     0.280 HD
BRANCH  17  21
ATOM     21  C2  <0> d   1       0.002  -0.004   0.002  0.00  0.00     0.268 C 
ATOM     22  C1  <0> d   1      -0.019   1.526   0.010  0.00  0.00     0.037 C 
ENDBRANCH  17  21
ENDBRANCH  13  14
ENDBRANCH   1  13
TORSDOF 3
