REMARK  8 active torsions:
REMARK  status: ('A' for Active; 'I' for Inactive)
REMARK    1  A    between atoms: O1_2  and  C2_3 
REMARK    2  A    between atoms: C5_6  and  O6_31 
REMARK    3  A    between atoms: C6_7  and  C8_9 
REMARK    4  A    between atoms: C15_17  and  C17_20 
REMARK    5  A    between atoms: C17_20  and  N1_21 
REMARK    6  A    between atoms: N2_24  and  C22_27 
REMARK    7  A    between atoms: C22_27  and  C23_28 
REMARK    8  A    between atoms: C23_28  and  O4_29 
ROOT
ATOM      1  C8  <0> d   1       1.331  -4.070  -2.303  0.00  0.00     0.055 C 
ATOM      2  C9  <0> d   1       0.870  -4.827  -1.274  0.00  0.00     0.128 A 
ATOM      3  C10 <0> d   1       0.957  -6.290  -1.166  0.00  0.00     0.218 A 
ATOM      4  O2  <0> d   1       1.449  -7.069  -1.964  0.00  0.00    -0.284 OA
ATOM      5  C11 <0> d   1       0.315  -6.605   0.124  0.00  0.00     0.051 A 
ATOM      6  C12 <0> d   1       0.077  -7.799   0.805  0.00  0.00     0.021 A 
ATOM      7  C13 <0> d   1      -0.556  -7.777   2.015  0.00  0.00     0.041 A 
ATOM      8  C14 <0> d   1      -0.964  -6.567   2.570  0.00  0.00     0.118 A 
ATOM      9  C15 <0> d   1      -0.735  -5.374   1.904  0.00  0.00     0.039 A 
ATOM     10  C16 <0> d   1      -0.091  -5.378   0.673  0.00  0.00     0.101 A 
ATOM     11  O3  <0> d   1       0.251  -4.371  -0.160  0.00  0.00    -0.305 OA
ATOM     12  O5  <0> d   1      -1.593  -6.556   3.773  0.00  0.00    -0.191 OA
ENDROOT
BRANCH   9  13
ATOM     13  C17 <0> d   1      -1.182  -4.071   2.516  0.00  0.00     0.279 C 
BRANCH  13  14
ATOM     14  N1  <0> d   1      -0.104  -3.528   3.353  0.00  0.00    -0.064 N 
ATOM     15  C21 <0> d   1      -0.494  -2.203   3.853  0.00  0.00     0.265 C 
ATOM     16  C20 <0> d   1       0.636  -1.628   4.710  0.00  0.00     0.300 C 
ATOM     17  N2  <0> d   1       0.904  -2.535   5.835  0.00  0.00     0.093 N 
ATOM     18  C19 <0> d   1       1.272  -3.873   5.350  0.00  0.00     0.300 C 
ATOM     19  C18 <0> d   1       0.136  -4.429   4.488  0.00  0.00     0.265 C 
ATOM     20  H28 <0> d   1       0.738  -3.446   2.805  0.00  0.00     0.280 HD
BRANCH  17  21
ATOM     21  C22 <0> d   1       1.947  -1.989   6.714  0.00  0.00     0.298 C 
BRANCH  21  22
ATOM     22  C23 <0> d   1       1.428  -0.720   7.393  0.00  0.00     0.194 C 
BRANCH  22  23
ATOM     23  O4  <0> d   1       0.340  -1.053   8.258  0.00  0.00    -0.399 OA
ATOM     24  H24 <0> d   1      -0.039  -0.295   8.723  0.00  0.00     0.209 HD
ENDBRANCH  22  23
ENDBRANCH  21  22
ENDBRANCH  17  21
ENDBRANCH  13  14
ENDBRANCH   9  13
BRANCH   1  25
ATOM     25  C6  <0> d   1       1.320  -2.606  -2.199  0.00  0.00     0.003 A 
ATOM     26  C5  <0> d   1       2.105  -1.830  -3.068  0.00  0.00     0.078 A 
ATOM     27  C4  <0> d   1       2.087  -0.449  -2.962  0.00  0.00     0.040 A 
ATOM     28  C3  <0> d   1       1.300   0.165  -2.007  0.00  0.00     0.039 A 
ATOM     29  C2  <0> d   1       0.520  -0.596  -1.143  0.00  0.00     0.069 A 
ATOM     30  C7  <0> d   1       0.530  -1.975  -1.230  0.00  0.00     0.051 A 
BRANCH  26  31
ATOM     31  O6  <0> d   1       2.878  -2.432  -4.008  0.00  0.00    -0.355 OA
ATOM     32  C24 <0> d   1       3.649  -1.579  -4.856  0.00  0.00     0.210 C 
ENDBRANCH  26  31
BRANCH  29  33
ATOM     33  O1  <0> d   1      -0.251   0.018  -0.207  0.00  0.00    -0.356 OA
ATOM     34  C1  <0> d   1      -0.214   1.447  -0.172  0.00  0.00     0.210 C 
ENDBRANCH  29  33
ENDBRANCH   1  25
TORSDOF 8
