REMARK  9 active torsions:
REMARK  status: ('A' for Active; 'I' for Inactive)
REMARK    1  A    between atoms: C2_2  and  N1_3 
REMARK    2  A    between atoms: C4_5  and  C12_14 
REMARK    3  A    between atoms: C9_10  and  O1_12 
REMARK    4  A    between atoms: C18_21  and  O5_35 
REMARK    5  A    between atoms: C19_22  and  C21_25 
REMARK    6  A    between atoms: C21_25  and  N2_26 
REMARK    7  A    between atoms: N3_29  and  C26_32 
REMARK    8  A    between atoms: C26_32  and  C27_33 
REMARK    9  A    between atoms: C27_33  and  O4_34 
ROOT
ATOM      1  C12 <0> d   1      -2.482   5.180  -0.109  0.00  0.00     0.055 C 
ATOM      2  C13 <0> d   1      -1.528   4.207  -0.083  0.00  0.00     0.128 A 
ATOM      3  C14 <0> d   1      -0.124   4.421  -0.083  0.00  0.00     0.218 A 
ATOM      4  O2  <0> d   1       0.462   5.491  -0.106  0.00  0.00    -0.284 OA
ATOM      5  C15 <0> d   1       0.472   3.075  -0.050  0.00  0.00     0.051 A 
ATOM      6  C16 <0> d   1       1.786   2.605  -0.036  0.00  0.00     0.021 A 
ATOM      7  C17 <0> d   1       2.027   1.261  -0.005  0.00  0.00     0.038 A 
ATOM      8  C18 <0> d   1       0.967   0.358   0.013  0.00  0.00     0.076 A 
ATOM      9  C19 <0> d   1      -0.342   0.810  -0.001  0.00  0.00     0.038 A 
ATOM     10  C20 <0> d   1      -0.605   2.173  -0.033  0.00  0.00     0.101 A 
ATOM     11  O3  <0> d   1      -1.759   2.873  -0.058  0.00  0.00    -0.305 OA
ENDROOT
BRANCH   1  12
ATOM     12  C4  <0> d   1      -3.897   4.816  -0.105  0.00  0.00    -0.005 A 
ATOM     13  C3  <0> d   1      -4.423   3.542  -0.076  0.00  0.00     0.103 A 
ATOM     14  N1  <0> d   1      -5.777   3.611  -0.082  0.00  0.00    -0.356 N 
ATOM     15  C6  <0> d   1      -6.194   4.928  -0.114  0.00  0.00     0.045 A 
ATOM     16  C5  <0> d   1      -5.048   5.739  -0.124  0.00  0.00     0.005 A 
ATOM     17  C7  <0> d   1      -7.452   5.522  -0.131  0.00  0.00     0.033 A 
ATOM     18  C10 <0> d   1      -5.172   7.125  -0.162  0.00  0.00     0.051 A 
ATOM     19  C9  <0> d   1      -6.430   7.699  -0.179  0.00  0.00     0.069 A 
ATOM     20  C8  <0> d   1      -7.565   6.895  -0.164  0.00  0.00     0.039 A 
BRANCH  14  21
ATOM     21  C2  <0> d   1      -6.672   2.452  -0.056  0.00  0.00     0.124 C 
ATOM     22  C1  <0> d   1      -7.079   2.091  -1.486  0.00  0.00     0.027 C 
ENDBRANCH  14  21
BRANCH  19  23
ATOM     23  O1  <0> d   1      -6.558   9.052  -0.211  0.00  0.00    -0.356 OA
ATOM     24  C11 <0> d   1      -7.886   9.579  -0.227  0.00  0.00     0.210 C 
ENDBRANCH  19  23
ENDBRANCH   1  12
BRANCH   9  25
ATOM     25  C21 <0> d   1      -1.481  -0.177   0.017  0.00  0.00     0.317 C 
BRANCH  25  26
ATOM     26  N2  <0> d   1      -1.846  -0.529  -1.361  0.00  0.00     0.096 N 
ATOM     27  C25 <0> d   1      -2.785  -1.660  -1.385  0.00  0.00     0.303 C 
ATOM     28  C24 <0> d   1      -3.078  -2.046  -2.837  0.00  0.00     0.302 C 
ATOM     29  N3  <0> d   1      -3.636  -0.886  -3.546  0.00  0.00     0.093 N 
ATOM     30  C23 <0> d   1      -2.698   0.244  -3.522  0.00  0.00     0.302 C 
ATOM     31  C22 <0> d   1      -2.405   0.630  -2.071  0.00  0.00     0.303 C 
BRANCH  29  32
ATOM     32  C26 <0> d   1      -4.002  -1.238  -4.925  0.00  0.00     0.298 C 
BRANCH  32  33
ATOM     33  C27 <0> d   1      -5.300  -2.048  -4.917  0.00  0.00     0.194 C 
BRANCH  33  34
ATOM     34  O4  <0> d   1      -6.368  -1.232  -4.433  0.00  0.00    -0.399 OA
ATOM     35  H30 <0> d   1      -7.385  -1.644  -4.356  0.00  0.00     0.209 HD
ENDBRANCH  33  34
ENDBRANCH  32  33
ENDBRANCH  29  32
ENDBRANCH  25  26
ENDBRANCH   9  25
BRANCH   8  36
ATOM     36  O5  <0> d   1       1.219  -0.975   0.044  0.00  0.00    -0.360 OA
ATOM     37  H31 <0> d   1       0.385  -1.692   0.058  0.00  0.00     0.217 HD
ENDBRANCH   8  36
TORSDOF 9
