REMARK  3 active torsions:
REMARK  status: ('A' for Active; 'I' for Inactive)
REMARK    1  A    between atoms: C4_4  and  C18_23 
REMARK    2  A    between atoms: C9_10  and  C10_11 
REMARK    3  A    between atoms: C18_23  and  N1_24 
ROOT
ATOM      1  C1  <0> d   1       4.511   3.011   0.969  0.00  0.00     0.021 A 
ATOM      2  C2  <0> d   1       4.900   4.300   1.201  0.00  0.00     0.041 A 
ATOM      3  C3  <0> d   1       3.960   5.326   1.191  0.00  0.00     0.118 A 
ATOM      4  C4  <0> d   1       2.623   5.055   0.946  0.00  0.00     0.041 A 
ATOM      5  C5  <0> d   1       2.211   3.750   0.709  0.00  0.00     0.101 A 
ATOM      6  C6  <0> d   1       3.169   2.723   0.722  0.00  0.00     0.051 A 
ATOM      7  C7  <0> d   1       2.440   1.472   0.442  0.00  0.00     0.218 A 
ATOM      8  O1  <0> d   1       2.897   0.345   0.364  0.00  0.00    -0.284 OA
ATOM      9  C8  <0> d   1       1.040   1.889   0.280  0.00  0.00     0.128 A 
ATOM     10  C9  <0> d   1      -0.013   1.076   0.008  0.00  0.00     0.055 C 
ATOM     11  O4  <0> d   1       0.992   3.232   0.444  0.00  0.00    -0.305 OA
ATOM     12  O6  <0> d   1       4.356   6.604   1.422  0.00  0.00    -0.191 OA
ENDROOT
BRANCH  10  13
ATOM     13  C10 <0> d   1      -1.374   1.622  -0.019  0.00  0.00     0.002 A 
ATOM     14  C15 <0> d   1      -2.483   0.763   0.069  0.00  0.00     0.090 A 
ATOM     15  C14 <0> d   1      -3.763   1.289   0.045  0.00  0.00     0.002 A 
ATOM     16  O2  <0> d   1      -2.287  -0.576   0.173  0.00  0.00    -0.325 OA
ATOM     17  C13 <0> d   1      -3.948   2.655  -0.069  0.00  0.00     0.036 A 
ATOM     18  C17 <0> d   1      -4.963   0.381   0.144  0.00  0.00     0.212 C 
ATOM     19  C12 <0> d   1      -2.859   3.508  -0.158  0.00  0.00     0.035 A 
ATOM     20  C11 <0> d   1      -1.576   3.003  -0.128  0.00  0.00     0.038 A 
ATOM     21 Cl1  <0> d   1      -3.111   5.219  -0.302  0.00  0.00    -0.084 Cl
ATOM     22  O3  <0> d   1      -4.560  -0.966  -0.122  0.00  0.00    -0.362 OA
ATOM     23  C16 <0> d   1      -3.398  -1.360   0.618  0.00  0.00     0.345 C 
ENDBRANCH  10  13
BRANCH   4  24
ATOM     24  C18 <0> d   1       1.616   6.177   0.938  0.00  0.00     0.317 C 
BRANCH  24  25
ATOM     25  N1  <0> d   1       1.078   6.361   2.293  0.00  0.00     0.097 N 
ATOM     26  C22 <0> d   1       0.275   7.590   2.378  0.00  0.00     0.299 C 
ATOM     27  C21 <0> d   1      -0.215   7.774   3.817  0.00  0.00     0.198 C 
ATOM     28  O5  <0> d   1      -0.954   6.616   4.215  0.00  0.00    -0.388 OA
ATOM     29  C20 <0> d   1      -0.203   5.401   4.144  0.00  0.00     0.198 C 
ATOM     30  C19 <0> d   1       0.288   5.193   2.709  0.00  0.00     0.299 C 
ENDBRANCH  24  25
ENDBRANCH   4  24
TORSDOF 3
