REMARK  10 active torsions:
REMARK  status: ('A' for Active; 'I' for Inactive)
REMARK    1  A    between atoms: C3_3  and  C24_31 
REMARK    2  A    between atoms: C4_4  and  C5_8 
REMARK    3  A    between atoms: C8_11  and  O2_15 
REMARK    4  A    between atoms: C10_13  and  O1_14 
REMARK    5  A    between atoms: O2_15  and  C11_16 
REMARK    6  A    between atoms: C11_16  and  C12_17 
REMARK    7  A    between atoms: C12_17  and  N3_18 
REMARK    8  A    between atoms: N4_21  and  C17_24 
REMARK    9  A    between atoms: C17_24  and  C18_25 
REMARK   10  A    between atoms: C27_34  and  O3_37 
ROOT
ATOM      1  C5  <0> d   1      -3.704   2.829  -2.905  0.00  0.00     0.029 A 
ATOM      2  C6  <0> d   1      -4.746   2.838  -1.980  0.00  0.00     0.019 A 
ATOM      3  C7  <0> d   1      -5.997   3.279  -2.354  0.00  0.00     0.038 A 
ATOM      4  C8  <0> d   1      -6.224   3.717  -3.653  0.00  0.00     0.071 A 
ATOM      5  C9  <0> d   1      -5.192   3.711  -4.581  0.00  0.00     0.074 A 
ATOM      6  C10 <0> d   1      -3.931   3.275  -4.212  0.00  0.00     0.081 A 
ENDROOT
BRANCH   4   7
ATOM      7  O2  <0> d   1      -7.459   4.151  -4.016  0.00  0.00    -0.349 OA
BRANCH   7   8
ATOM      8  C11 <0> d   1      -8.475   4.129  -3.012  0.00  0.00     0.206 C 
BRANCH   8   9
ATOM      9  C12 <0> d   1      -9.787   4.649  -3.603  0.00  0.00     0.299 C 
BRANCH   9  10
ATOM     10  N3  <0> d   1     -10.254   3.728  -4.647  0.00  0.00     0.093 N 
ATOM     11  C16 <0> d   1     -11.375   4.308  -5.399  0.00  0.00     0.302 C 
ATOM     12  C15 <0> d   1     -11.779   3.354  -6.525  0.00  0.00     0.303 C 
ATOM     13  N4  <0> d   1     -12.149   2.052  -5.952  0.00  0.00     0.096 N 
ATOM     14  C14 <0> d   1     -11.027   1.472  -5.201  0.00  0.00     0.303 C 
ATOM     15  C13 <0> d   1     -10.624   2.426  -4.074  0.00  0.00     0.302 C 
BRANCH  13  16
ATOM     16  C17 <0> d   1     -12.616   1.130  -6.997  0.00  0.00     0.311 C 
BRANCH  16  17
ATOM     17  C18 <0> d   1     -13.908   1.643  -7.579  0.00  0.00    -0.030 A 
ATOM     18  C23 <0> d   1     -13.886   2.497  -8.666  0.00  0.00     0.009 A 
ATOM     19  C22 <0> d   1     -15.071   2.963  -9.202  0.00  0.00     0.001 A 
ATOM     20  C21 <0> d   1     -16.278   2.584  -8.646  0.00  0.00     0.000 A 
ATOM     21  C20 <0> d   1     -16.300   1.734  -7.556  0.00  0.00     0.001 A 
ATOM     22  C19 <0> d   1     -15.115   1.264  -7.022  0.00  0.00     0.009 A 
ENDBRANCH  16  17
ENDBRANCH  13  16
ENDBRANCH   9  10
ENDBRANCH   8   9
ENDBRANCH   7   8
ENDBRANCH   4   7
BRANCH   6  23
ATOM     23  O1  <0> d   1      -2.919   3.275  -5.117  0.00  0.00    -0.360 OA
ATOM     24  H8  <0> d   1      -2.842   2.454  -5.622  0.00  0.00     0.217 HD
ENDBRANCH   6  23
BRANCH   1  25
ATOM     25  C4  <0> d   1      -2.358   2.356  -2.505  0.00  0.00     0.103 A 
ATOM     26  C3  <0> d   1      -2.069   1.165  -1.791  0.00  0.00     0.029 A 
ATOM     27  C2  <0> d   1      -0.718   1.103  -1.628  0.00  0.00     0.037 A 
ATOM     28  C1  <0> d   1       0.041   0.007  -0.924  0.00  0.00     0.070 C 
ATOM     29  N2  <0> d   1      -0.181   2.199  -2.203  0.00  0.00    -0.281 N 
ATOM     30  N1  <0> d   1      -1.218   2.965  -2.749  0.00  0.00    -0.173 NA
ATOM     31  H1  <0> d   1       0.763   2.418  -2.234  0.00  0.00     0.189 HD
BRANCH  26  32
ATOM     32  C24 <0> d   1      -3.058   0.169  -1.310  0.00  0.00    -0.021 A 
ATOM     33  C29 <0> d   1      -3.262  -0.009   0.057  0.00  0.00     0.015 A 
ATOM     34  C28 <0> d   1      -4.187  -0.931   0.500  0.00  0.00     0.037 A 
ATOM     35  C27 <0> d   1      -4.905  -1.691  -0.413  0.00  0.00     0.068 A 
ATOM     36  C26 <0> d   1      -4.700  -1.520  -1.775  0.00  0.00     0.037 A 
ATOM     37  C25 <0> d   1      -3.781  -0.595  -2.225  0.00  0.00     0.015 A 
BRANCH  35  38
ATOM     38  O3  <0> d   1      -5.811  -2.603   0.028  0.00  0.00    -0.356 OA
ATOM     39  C30 <0> d   1      -5.973  -2.726   1.442  0.00  0.00     0.210 C 
ENDBRANCH  35  38
ENDBRANCH  26  32
ENDBRANCH   1  25
TORSDOF 10
