REMARK  5 active torsions:
REMARK  status: ('A' for Active; 'I' for Inactive)
REMARK    1  A    between atoms: C7_8  and  C8_10 
REMARK    2  A    between atoms: C13_15  and  O3_34 
REMARK    3  A    between atoms: C14_16  and  C17_21 
REMARK    4  A    between atoms: C17_21  and  N2_22 
REMARK    5  A    between atoms: N3_25  and  C22_28 
ROOT
ATOM      1  C8  <0> d   1       3.219  -4.085  -0.052  0.00  0.00     0.076 C 
ATOM      2  C9  <0> d   1       4.484  -4.608  -0.276  0.00  0.00     0.034 C 
ATOM      3  C10 <0> d   1       4.612  -6.013  -0.408  0.00  0.00    -0.000 A 
ATOM      4  C11 <0> d   1       5.881  -6.612  -0.434  0.00  0.00     0.017 A 
ATOM      5  C12 <0> d   1       5.991  -7.968  -0.519  0.00  0.00     0.038 A 
ATOM      6  C13 <0> d   1       4.851  -8.767  -0.588  0.00  0.00     0.076 A 
ATOM      7  C14 <0> d   1       3.589  -8.194  -0.583  0.00  0.00     0.038 A 
ATOM      8  C15 <0> d   1       3.459  -6.816  -0.504  0.00  0.00     0.100 A 
ATOM      9  O1  <0> d   1       2.233  -6.241  -0.541  0.00  0.00    -0.273 OA
ATOM     10  C16 <0> d   1       2.103  -5.040   0.073  0.00  0.00     0.301 C 
ATOM     11  O2  <0> d   1       1.100  -4.757   0.701  0.00  0.00    -0.259 OA
ENDROOT
BRANCH   7  12
ATOM     12  C17 <0> d   1       2.362  -9.065  -0.663  0.00  0.00     0.317 C 
BRANCH  12  13
ATOM     13  N2  <0> d   1       1.932  -9.431   0.694  0.00  0.00     0.096 N 
ATOM     14  C21 <0> d   1       0.613 -10.077   0.671  0.00  0.00     0.292 C 
ATOM     15  C20 <0> d   1       0.122 -10.277   2.109  0.00  0.00     0.154 C 
ATOM     16  N3  <0> d   1       1.157 -11.003   2.860  0.00  0.00    -0.362 N 
ATOM     17  C19 <0> d   1       2.535 -10.490   2.817  0.00  0.00     0.154 C 
ATOM     18  C18 <0> d   1       2.932 -10.282   1.352  0.00  0.00     0.292 C 
BRANCH  16  19
ATOM     19  C22 <0> d   1       0.842 -12.142   3.591  0.00  0.00     0.125 A 
ATOM     20  N4  <0> d   1      -0.350 -12.700   3.454  0.00  0.00    -0.244 NA
ATOM     21  C26 <0> d   1      -0.688 -13.786   4.126  0.00  0.00     0.119 A 
ATOM     22  C25 <0> d   1       0.195 -14.374   5.009  0.00  0.00     0.019 A 
ATOM     23  C24 <0> d   1       1.454 -13.816   5.186  0.00  0.00     0.005 A 
ATOM     24  C23 <0> d   1       1.781 -12.682   4.465  0.00  0.00     0.050 A 
ENDBRANCH  16  19
ENDBRANCH  12  13
ENDBRANCH   7  12
BRANCH   6  25
ATOM     25  O3  <0> d   1       4.977 -10.117  -0.660  0.00  0.00    -0.360 OA
ATOM     26  H22 <0> d   1       4.995 -10.557   0.200  0.00  0.00     0.217 HD
ENDBRANCH   6  25
BRANCH   1  27
ATOM     27  C7  <0> d   1       2.999  -2.631   0.064  0.00  0.00     0.115 A 
ATOM     28  N1  <0> d   1       1.875  -1.980   0.279  0.00  0.00    -0.239 NA
ATOM     29  C5  <0> d   1       1.823  -0.636   0.362  0.00  0.00     0.075 A 
ATOM     30  C4  <0> d   1       3.057   0.037   0.204  0.00  0.00     0.035 A 
ATOM     31  C6  <0> d   1       0.690   0.182   0.588  0.00  0.00     0.033 A 
ATOM     32  C3  <0> d   1       3.165   1.405   0.263  0.00  0.00     0.021 A 
ATOM     33  S1  <0> d   1       4.192  -1.305  -0.051  0.00  0.00    -0.067 SA
ATOM     34  C2  <0> d   1       2.033   2.167   0.485  0.00  0.00     0.002 A 
ATOM     35  C1  <0> d   1       0.807   1.535   0.644  0.00  0.00     0.002 A 
ENDBRANCH   1  27
TORSDOF 5
