REMARK  4 active torsions:
REMARK  status: ('A' for Active; 'I' for Inactive)
REMARK    1  A    between atoms: C3_3  and  C7_9 
REMARK    2  A    between atoms: C6_6  and  O1_7 
REMARK    3  A    between atoms: C7_9  and  C8_11 
REMARK    4  A    between atoms: C8_11  and  N1_12 
ROOT
ATOM      1  C1  <0> d   1       1.431   0.098   3.923  0.00  0.00     0.037 A 
ATOM      2  C2  <0> d   1       0.951   0.427   2.689  0.00  0.00     0.021 A 
ATOM      3  C3  <0> d   1      -0.200   1.218   2.572  0.00  0.00     0.048 A 
ATOM      4  C4  <0> d   1      -0.853   1.674   3.731  0.00  0.00     0.123 A 
ATOM      5  C5  <0> d   1      -0.356   1.328   4.976  0.00  0.00     0.077 A 
ATOM      6  C6  <0> d   1       0.785   0.544   5.073  0.00  0.00     0.068 A 
ATOM      7  O2  <0> d   1      -1.964   2.445   3.630  0.00  0.00    -0.191 OA
ENDROOT
BRANCH   3   8
ATOM      8  C7  <0> d   1      -0.718   1.572   1.248  0.00  0.00     0.190 C 
ATOM      9  O3  <0> d   1      -1.715   2.256   1.150  0.00  0.00    -0.290 OA
BRANCH   8  10
ATOM     10  C8  <0> d   1      -0.013   1.086   0.008  0.00  0.00     0.356 C 
BRANCH  10  11
ATOM     11  N1  <0> d   1      -0.723   1.572  -1.182  0.00  0.00     0.099 N 
ATOM     12  C12 <0> d   1       0.059   1.323  -2.401  0.00  0.00     0.299 C 
ATOM     13  C11 <0> d   1      -0.689   1.897  -3.608  0.00  0.00     0.198 C 
ATOM     14  O4  <0> d   1      -1.994   1.317  -3.674  0.00  0.00    -0.388 OA
ATOM     15  C10 <0> d   1      -2.784   1.541  -2.502  0.00  0.00     0.198 C 
ATOM     16  C9  <0> d   1      -2.057   0.963  -1.285  0.00  0.00     0.299 C 
ENDBRANCH  10  11
ENDBRANCH   8  10
ENDBRANCH   3   8
BRANCH   6  17
ATOM     17  O1  <0> d   1       1.273   0.211   6.294  0.00  0.00    -0.361 OA
ATOM     18  H4  <0> d   1       0.764   0.561   7.204  0.00  0.00     0.217 HD
ENDBRANCH   6  17
TORSDOF 4
