REMARK  12 active torsions:
REMARK  status: ('A' for Active; 'I' for Inactive)
REMARK    1  A    between atoms: O1_2  and  C2_3 
REMARK    2  A    between atoms: C2_3  and  C3_4 
REMARK    3  A    between atoms: C3_4  and  N1_5 
REMARK    4  A    between atoms: N1_5  and  C4_6 
REMARK    5  A    between atoms: N1_5  and  C7_10 
REMARK    6  A    between atoms: C4_6  and  C5_7 
REMARK    7  A    between atoms: C5_7  and  O2_8 
REMARK    8  A    between atoms: C7_10  and  C8_11 
REMARK    9  A    between atoms: C9_12  and  O7_32 
REMARK   10  A    between atoms: C15_19  and  C17_22 
REMARK   11  A    between atoms: C20_25  and  O6_30 
REMARK   12  A    between atoms: C21_26  and  O5_28 
ROOT
ATOM      1  C8  <0> d   1      -1.029  -0.173  -0.542  0.00  0.00     0.038 A 
ATOM      2  C9  <0> d   1       0.167   0.388  -0.126  0.00  0.00     0.076 A 
ATOM      3  C10 <0> d   1       0.502   1.692  -0.485  0.00  0.00     0.038 A 
ATOM      4  C11 <0> d   1      -0.346   2.434  -1.257  0.00  0.00     0.021 A 
ATOM      5  C12 <0> d   1      -1.552   1.881  -1.685  0.00  0.00     0.050 A 
ATOM      6  C13 <0> d   1      -1.902   0.566  -1.329  0.00  0.00     0.100 A 
ATOM      7  O3  <0> d   1      -3.072   0.038  -1.737  0.00  0.00    -0.320 OA
ATOM      8  C14 <0> d   1      -3.789   0.592  -2.717  0.00  0.00     0.159 C 
ATOM      9  C15 <0> d   1      -3.573   1.858  -3.161  0.00  0.00     0.048 C 
ATOM     10  C16 <0> d   1      -2.494   2.643  -2.527  0.00  0.00     0.197 C 
ATOM     11  O4  <0> d   1      -2.378   3.845  -2.700  0.00  0.00    -0.286 OA
ENDROOT
BRANCH   1  12
ATOM     12  C7  <0> d   1      -1.379  -1.585  -0.146  0.00  0.00     0.317 C 
BRANCH  12  13
ATOM     13  N1  <0> d   1      -0.702  -2.528  -1.046  0.00  0.00     0.097 N 
BRANCH  13  14
ATOM     14  C3  <0> d   1      -0.953  -3.917  -0.639  0.00  0.00     0.299 C 
BRANCH  14  15
ATOM     15  C2  <0> d   1      -0.145  -4.233   0.621  0.00  0.00     0.197 C 
BRANCH  15  16
ATOM     16  O1  <0> d   1      -0.672  -3.490   1.723  0.00  0.00    -0.394 OA
ATOM     17  C1  <0> d   1       0.080  -3.630   2.930  0.00  0.00     0.201 C 
ENDBRANCH  15  16
ENDBRANCH  14  15
ENDBRANCH  13  14
BRANCH  13  18
ATOM     18  C4  <0> d   1      -1.107  -2.307  -2.441  0.00  0.00     0.299 C 
BRANCH  18  19
ATOM     19  C5  <0> d   1      -0.022  -2.843  -3.378  0.00  0.00     0.197 C 
BRANCH  19  20
ATOM     20  O2  <0> d   1       0.022  -4.269  -3.288  0.00  0.00    -0.394 OA
ATOM     21  C6  <0> d   1       1.007  -4.873  -4.129  0.00  0.00     0.201 C 
ENDBRANCH  19  20
ENDBRANCH  18  19
ENDBRANCH  13  18
ENDBRANCH  12  13
ENDBRANCH   1  12
BRANCH   2  22
ATOM     22  O7  <0> d   1       1.020  -0.339   0.639  0.00  0.00    -0.360 OA
ATOM     23  H29 <0> d   1       1.711  -0.792   0.137  0.00  0.00     0.217 HD
ENDBRANCH   2  22
BRANCH   9  24
ATOM     24  C17 <0> d   1      -4.406   2.439  -4.242  0.00  0.00    -0.017 A 
ATOM     25  C22 <0> d   1      -5.766   2.659  -4.034  0.00  0.00     0.052 A 
ATOM     26  C21 <0> d   1      -6.538   3.208  -5.042  0.00  0.00     0.102 A 
ATOM     27  C20 <0> d   1      -5.958   3.526  -6.267  0.00  0.00     0.101 A 
ATOM     28  C19 <0> d   1      -4.606   3.301  -6.476  0.00  0.00     0.040 A 
ATOM     29  C18 <0> d   1      -3.831   2.760  -5.470  0.00  0.00     0.015 A 
BRANCH  26  30
ATOM     30  O5  <0> d   1      -7.864   3.430  -4.840  0.00  0.00    -0.353 OA
ATOM     31  C23 <0> d   1      -8.393   3.080  -3.559  0.00  0.00     0.210 C 
ENDBRANCH  26  30
BRANCH  27  32
ATOM     32  O6  <0> d   1      -6.719   4.060  -7.261  0.00  0.00    -0.353 OA
ATOM     33  C24 <0> d   1      -6.059   4.363  -8.491  0.00  0.00     0.210 C 
ENDBRANCH  27  32
ENDBRANCH   9  24
TORSDOF 12
