REMARK  11 active torsions:
REMARK  status: ('A' for Active; 'I' for Inactive)
REMARK    1  A    between atoms: C2_2  and  C3_3 
REMARK    2  A    between atoms: C3_3  and  C4_4 
REMARK    3  A    between atoms: C4_4  and  N1_5 
REMARK    4  A    between atoms: N1_5  and  C5_6 
REMARK    5  A    between atoms: N1_5  and  C9_10 
REMARK    6  A    between atoms: C5_6  and  C6_7 
REMARK    7  A    between atoms: C6_7  and  C7_8 
REMARK    8  A    between atoms: C9_10  and  C10_11 
REMARK    9  A    between atoms: C11_12  and  O4_34 
REMARK   10  A    between atoms: C17_19  and  C18_20 
REMARK   11  A    between atoms: C23_26  and  O2_29 
ROOT
ATOM      1  C10 <0> d   1       6.654  -5.064  -0.079  0.00  0.00     0.036 A 
ATOM      2  C11 <0> d   1       7.962  -5.519  -0.038  0.00  0.00     0.076 A 
ATOM      3  C12 <0> d   1       9.025  -4.621  -0.065  0.00  0.00     0.038 A 
ATOM      4  C13 <0> d   1       8.788  -3.276  -0.131  0.00  0.00     0.021 A 
ATOM      5  C14 <0> d   1       7.477  -2.804  -0.172  0.00  0.00     0.051 A 
ATOM      6  C15 <0> d   1       6.397  -3.701  -0.146  0.00  0.00     0.101 A 
ATOM      7  O1  <0> d   1       5.245  -2.998  -0.189  0.00  0.00    -0.305 OA
ATOM      8  C16 <0> d   1       5.481  -1.666  -0.254  0.00  0.00     0.128 A 
ATOM      9  C17 <0> d   1       4.531  -0.691  -0.312  0.00  0.00     0.055 C 
ATOM     10  C28 <0> d   1       6.886  -1.456  -0.243  0.00  0.00     0.218 A 
ATOM     11  O3  <0> d   1       7.476  -0.389  -0.284  0.00  0.00    -0.284 OA
ENDROOT
BRANCH   9  12
ATOM     12  C18 <0> d   1       3.115  -1.050  -0.316  0.00  0.00    -0.005 A 
ATOM     13  C21 <0> d   1       1.967  -0.124  -0.376  0.00  0.00     0.005 A 
ATOM     14  C20 <0> d   1       0.818  -0.931  -0.354  0.00  0.00     0.045 A 
ATOM     15  C22 <0> d   1       1.848   1.261  -0.442  0.00  0.00     0.051 A 
ATOM     16  N2  <0> d   1       1.231  -2.248  -0.287  0.00  0.00    -0.360 N 
ATOM     17  C25 <0> d   1      -0.437  -0.333  -0.400  0.00  0.00     0.033 A 
ATOM     18  C19 <0> d   1       2.584  -2.321  -0.264  0.00  0.00     0.103 A 
ATOM     19  C27 <0> d   1       0.331  -3.403  -0.245  0.00  0.00     0.156 C 
ATOM     20  C24 <0> d   1      -0.546   1.039  -0.465  0.00  0.00     0.039 A 
ATOM     21  C23 <0> d   1       0.593   1.839  -0.486  0.00  0.00     0.069 A 
BRANCH  21  22
ATOM     22  O2  <0> d   1       0.470   3.191  -0.551  0.00  0.00    -0.356 OA
ATOM     23  C26 <0> d   1      -0.857   3.721  -0.595  0.00  0.00     0.210 C 
ENDBRANCH  21  22
ENDBRANCH   9  12
BRANCH   1  24
ATOM     24  C9  <0> d   1       5.511  -6.047  -0.050  0.00  0.00     0.279 C 
BRANCH  24  25
ATOM     25  N1  <0> d   1       5.035  -6.284  -1.419  0.00  0.00    -0.067 N 
ATOM     26  H34 <0> d   1       5.001  -5.315  -1.939  0.00  0.00     0.280 HD
BRANCH  25  27
ATOM     27  C4  <0> d   1       5.961  -7.157  -2.154  0.00  0.00     0.235 C 
BRANCH  27  28
ATOM     28  C3  <0> d   1       5.982  -8.541  -1.502  0.00  0.00     0.027 C 
BRANCH  28  29
ATOM     29  C2  <0> d   1       7.027  -9.416  -2.197  0.00  0.00    -0.003 C 
ATOM     30  C1  <0> d   1       7.048 -10.801  -1.546  0.00  0.00     0.005 C 
ENDBRANCH  28  29
ENDBRANCH  27  28
ENDBRANCH  25  27
BRANCH  25  31
ATOM     31  C5  <0> d   1       3.676  -6.842  -1.415  0.00  0.00     0.235 C 
BRANCH  31  32
ATOM     32  C6  <0> d   1       3.075  -6.731  -2.817  0.00  0.00     0.027 C 
BRANCH  32  33
ATOM     33  C7  <0> d   1       1.616  -7.191  -2.785  0.00  0.00    -0.003 C 
ATOM     34  C8  <0> d   1       1.015  -7.080  -4.187  0.00  0.00     0.005 C 
ENDBRANCH  32  33
ENDBRANCH  31  32
ENDBRANCH  25  31
ENDBRANCH  24  25
ENDBRANCH   1  24
BRANCH   2  35
ATOM     35  O4  <0> d   1       8.209  -6.852   0.028  0.00  0.00    -0.360 OA
ATOM     36  H35 <0> d   1       9.245  -7.219   0.060  0.00  0.00     0.217 HD
ENDBRANCH   2  35
TORSDOF 11
