REMARK  4 active torsions:
REMARK  status: ('A' for Active; 'I' for Inactive)
REMARK    1  A    between atoms: C2_2  and  N1_3 
REMARK    2  A    between atoms: N2_6  and  C7_9 
REMARK    3  A    between atoms: C7_9  and  C8_10 
REMARK    4  A    between atoms: C15_18  and  C16_19 
ROOT
ATOM      1  C8  <0> d   1       1.706   3.165   0.003  0.00  0.00     0.041 A 
ATOM      2  C9  <0> d   1       3.071   3.406  -0.009  0.00  0.00     0.118 A 
ATOM      3  C10 <0> d   1       3.976   2.349  -0.024  0.00  0.00     0.041 A 
ATOM      4  C11 <0> d   1       3.526   1.058  -0.026  0.00  0.00     0.021 A 
ATOM      5  C12 <0> d   1       2.156   0.800  -0.014  0.00  0.00     0.051 A 
ATOM      6  C13 <0> d   1       1.234   1.860   0.000  0.00  0.00     0.101 A 
ATOM      7  O1  <0> d   1      -0.016   1.349   0.009  0.00  0.00    -0.305 OA
ATOM      8  C14 <0> d   1       0.002  -0.004   0.002  0.00  0.00     0.129 A 
ATOM      9  C15 <0> d   1      -1.094  -0.816   0.008  0.00  0.00     0.078 C 
ATOM     10  C20 <0> d   1       1.356  -0.437  -0.013  0.00  0.00     0.218 A 
ATOM     11  O3  <0> d   1       1.767  -1.585  -0.024  0.00  0.00    -0.284 OA
ATOM     12  O4  <0> d   1       3.529   4.684  -0.006  0.00  0.00    -0.191 OA
ENDROOT
BRANCH   1  13
ATOM     13  C7  <0> d   1       0.737   4.319   0.019  0.00  0.00     0.317 C 
BRANCH  13  14
ATOM     14  N2  <0> d   1       0.435   4.686   1.409  0.00  0.00     0.096 N 
ATOM     15  C4  <0> d   1      -0.315   5.948   1.469  0.00  0.00     0.300 C 
ATOM     16  C3  <0> d   1      -0.539   6.336   2.933  0.00  0.00     0.265 C 
ATOM     17  N1  <0> d   1      -1.270   5.259   3.615  0.00  0.00    -0.068 N 
ATOM     18  C6  <0> d   1      -0.520   3.997   3.555  0.00  0.00     0.265 C 
ATOM     19  H22 <0> d   1      -2.226   5.112   3.091  0.00  0.00     0.280 HD
ATOM     20  C5  <0> d   1      -0.296   3.609   2.091  0.00  0.00     0.300 C 
BRANCH  17  21
ATOM     21  C2  <0> d   1      -1.571   5.626   5.005  0.00  0.00     0.230 C 
ATOM     22  C1  <0> d   1      -2.538   4.603   5.605  0.00  0.00     0.034 C 
ENDBRANCH  17  21
ENDBRANCH  13  14
ENDBRANCH   1  13
BRANCH   9  23
ATOM     23  C16 <0> d   1      -2.390  -0.254   0.023  0.00  0.00     0.077 A 
ATOM     24  O2  <0> d   1      -2.685   1.063   0.039  0.00  0.00    -0.323 OA
ATOM     25  C19 <0> d   1      -4.016   1.222   0.048  0.00  0.00     0.142 A 
ATOM     26  C18 <0> d   1      -4.606   0.005   0.046  0.00  0.00     0.027 A 
ATOM     27  C17 <0> d   1      -3.582  -0.953   0.030  0.00  0.00     0.039 A 
ENDBRANCH   9  23
TORSDOF 4
