REMARK  9 active torsions:
REMARK  status: ('A' for Active; 'I' for Inactive)
REMARK    1  A    between atoms: C3_3  and  C18_24 
REMARK    2  A    between atoms: C8_9  and  O4_23 
REMARK    3  A    between atoms: C9_10  and  C11_13 
REMARK    4  A    between atoms: C11_13  and  N1_14 
REMARK    5  A    between atoms: N2_17  and  C16_20 
REMARK    6  A    between atoms: C16_20  and  C17_21 
REMARK    7  A    between atoms: C17_21  and  O3_22 
REMARK    8  A    between atoms: C21_27  and  O6_32 
REMARK    9  A    between atoms: C22_28  and  O5_30 
ROOT
ATOM      1  C1  <0> d   1      -0.018   1.503   0.010  0.00  0.00     0.077 C 
ATOM      2  C2  <0> d   1       0.002  -0.004   0.002  0.00  0.00     0.065 C 
ATOM      3  C3  <0> d   1      -1.182  -0.671   0.004  0.00  0.00     0.055 C 
ATOM      4  C4  <0> d   1      -1.150  -2.146   0.013  0.00  0.00     0.198 C 
ATOM      5  O1  <0> d   1      -2.144  -2.815  -0.209  0.00  0.00    -0.286 OA
ATOM      6  C5  <0> d   1       0.158  -2.762   0.307  0.00  0.00     0.050 A 
ATOM      7  C6  <0> d   1       0.273  -4.122   0.597  0.00  0.00     0.021 A 
ATOM      8  C7  <0> d   1       1.501  -4.653   0.870  0.00  0.00     0.038 A 
ATOM      9  C8  <0> d   1       2.635  -3.844   0.861  0.00  0.00     0.076 A 
ATOM     10  C9  <0> d   1       2.536  -2.493   0.572  0.00  0.00     0.038 A 
ATOM     11  C10 <0> d   1       1.296  -1.937   0.289  0.00  0.00     0.100 A 
ATOM     12  O2  <0> d   1       1.182  -0.627  -0.013  0.00  0.00    -0.313 OA
ENDROOT
BRANCH  10  13
ATOM     13  C11 <0> d   1       3.771  -1.629   0.566  0.00  0.00     0.317 C 
BRANCH  13  14
ATOM     14  N1  <0> d   1       4.357  -1.623  -0.782  0.00  0.00     0.096 N 
ATOM     15  C15 <0> d   1       5.418  -0.612  -0.890  0.00  0.00     0.303 C 
ATOM     16  C14 <0> d   1       5.946  -0.582  -2.326  0.00  0.00     0.302 C 
ATOM     17  N2  <0> d   1       6.453  -1.913  -2.687  0.00  0.00     0.093 N 
ATOM     18  C13 <0> d   1       5.392  -2.924  -2.579  0.00  0.00     0.302 C 
ATOM     19  C12 <0> d   1       4.863  -2.954  -1.143  0.00  0.00     0.303 C 
BRANCH  17  20
ATOM     20  C16 <0> d   1       7.038  -1.906  -4.034  0.00  0.00     0.298 C 
BRANCH  20  21
ATOM     21  C17 <0> d   1       8.292  -1.029  -4.040  0.00  0.00     0.194 C 
BRANCH  21  22
ATOM     22  O3  <0> d   1       9.287  -1.615  -3.199  0.00  0.00    -0.399 OA
ATOM     23  H20 <0> d   1      10.111  -1.111  -3.155  0.00  0.00     0.209 HD
ENDBRANCH  21  22
ENDBRANCH  20  21
ENDBRANCH  17  20
ENDBRANCH  13  14
ENDBRANCH  10  13
BRANCH   9  24
ATOM     24  O4  <0> d   1       3.849  -4.384   1.137  0.00  0.00    -0.360 OA
ATOM     25  H21 <0> d   1       4.319  -4.715   0.359  0.00  0.00     0.217 HD
ENDBRANCH   9  24
BRANCH   3  26
ATOM     26  C18 <0> d   1      -2.470   0.064  -0.002  0.00  0.00    -0.017 A 
ATOM     27  C23 <0> d   1      -3.328  -0.040  -1.096  0.00  0.00     0.052 A 
ATOM     28  C22 <0> d   1      -4.531   0.643  -1.095  0.00  0.00     0.102 A 
ATOM     29  C21 <0> d   1      -4.878   1.439  -0.007  0.00  0.00     0.101 A 
ATOM     30  C20 <0> d   1      -4.022   1.546   1.078  0.00  0.00     0.040 A 
ATOM     31  C19 <0> d   1      -2.823   0.863   1.084  0.00  0.00     0.015 A 
BRANCH  28  32
ATOM     32  O5  <0> d   1      -5.372   0.539  -2.159  0.00  0.00    -0.353 OA
ATOM     33  C24 <0> d   1      -4.952  -0.295  -3.240  0.00  0.00     0.210 C 
ENDBRANCH  28  32
BRANCH  29  34
ATOM     34  O6  <0> d   1      -6.060   2.114  -0.009  0.00  0.00    -0.353 OA
ATOM     35  C25 <0> d   1      -6.353   2.912   1.139  0.00  0.00     0.210 C 
ENDBRANCH  29  34
ENDBRANCH   3  26
TORSDOF 9
