REMARK  10 active torsions:
REMARK  status: ('A' for Active; 'I' for Inactive)
REMARK    1  A    between atoms: C2_2  and  C3_3 
REMARK    2  A    between atoms: C3_3  and  O1_4 
REMARK    3  A    between atoms: O1_4  and  C4_5 
REMARK    4  A    between atoms: C4_5  and  C5_7 
REMARK    5  A    between atoms: C8_10  and  O3_13 
REMARK    6  A    between atoms: O3_13  and  C11_14 
REMARK    7  A    between atoms: C13_19  and  C14_20 
REMARK    8  A    between atoms: C17_23  and  O5_27 
REMARK    9  A    between atoms: C19_25  and  O4_26 
REMARK   10  A    between atoms: O5_27  and  C20_28 
ROOT
ATOM      1  C11 <0> d   1       2.235  -8.715   3.549  0.00  0.00     0.131 A 
ATOM      2  C12 <0> d   1       3.550  -9.029   3.622  0.00  0.00     0.060 A 
ATOM      3  N1  <0> d   1       3.778  -9.580   4.843  0.00  0.00    -0.279 N 
ATOM      4  H1  <0> d   1       4.633  -9.900   5.173  0.00  0.00     0.189 HD
ATOM      5  N2  <0> d   1       2.565  -9.605   5.543  0.00  0.00    -0.171 NA
ATOM      6  C13 <0> d   1       1.635  -9.081   4.772  0.00  0.00     0.125 A 
ATOM      7  C22 <0> d   1       4.577  -8.808   2.541  0.00  0.00     0.073 C 
ENDROOT
BRANCH   1   8
ATOM      8  O3  <0> d   1       1.605  -8.142   2.486  0.00  0.00    -0.306 OA
BRANCH   8   9
ATOM      9  C8  <0> d   1       1.551  -6.787   2.432  0.00  0.00     0.076 A 
ATOM     10  C7  <0> d   1       0.917  -6.161   1.365  0.00  0.00     0.038 A 
ATOM     11  C6  <0> d   1       0.859  -4.787   1.307  0.00  0.00     0.020 A 
ATOM     12  C5  <0> d   1       1.439  -4.021   2.323  0.00  0.00     0.039 A 
ATOM     13  C10 <0> d   1       2.080  -4.655   3.391  0.00  0.00     0.020 A 
ATOM     14  C9  <0> d   1       2.129  -6.030   3.445  0.00  0.00     0.038 A 
BRANCH  12  15
ATOM     15  C4  <0> d   1       1.380  -2.549   2.264  0.00  0.00     0.293 C 
ATOM     16  O2  <0> d   1       1.889  -1.885   3.146  0.00  0.00    -0.259 OA
BRANCH  15  17
ATOM     17  O1  <0> d   1       0.761  -1.940   1.234  0.00  0.00    -0.318 OA
BRANCH  17  18
ATOM     18  C3  <0> d   1       0.742  -0.511   1.242  0.00  0.00     0.178 C 
BRANCH  18  19
ATOM     19  C2  <0> d   1       0.002  -0.004   0.002  0.00  0.00     0.022 C 
ATOM     20  C1  <0> d   1      -0.019   1.526   0.010  0.00  0.00     0.007 C 
ENDBRANCH  18  19
ENDBRANCH  17  18
ENDBRANCH  15  17
ENDBRANCH  12  15
ENDBRANCH   8   9
ENDBRANCH   1   8
BRANCH   6  21
ATOM     21  C14 <0> d   1       0.205  -8.909   5.127  0.00  0.00     0.030 A 
ATOM     22  C19 <0> d   1      -0.260  -9.318   6.381  0.00  0.00     0.081 A 
ATOM     23  C18 <0> d   1      -1.595  -9.150   6.709  0.00  0.00     0.074 A 
ATOM     24  C17 <0> d   1      -2.469  -8.588   5.790  0.00  0.00     0.071 A 
ATOM     25  C16 <0> d   1      -2.009  -8.187   4.543  0.00  0.00     0.038 A 
ATOM     26  C15 <0> d   1      -0.680  -8.346   4.210  0.00  0.00     0.019 A 
BRANCH  22  27
ATOM     27  O4  <0> d   1       0.597  -9.872   7.278  0.00  0.00    -0.360 OA
ATOM     28  H16 <0> d   1       1.022  -9.232   7.864  0.00  0.00     0.217 HD
ENDBRANCH  22  27
BRANCH  24  29
ATOM     29  O5  <0> d   1      -3.780  -8.430   6.112  0.00  0.00    -0.351 OA
BRANCH  29  30
ATOM     30  C20 <0> d   1      -4.625  -7.844   5.120  0.00  0.00     0.171 C 
ATOM     31  C21 <0> d   1      -6.053  -7.747   5.659  0.00  0.00     0.034 C 
ENDBRANCH  29  30
ENDBRANCH  24  29
ENDBRANCH   6  21
TORSDOF 10
