REMARK  3 active torsions:
REMARK  status: ('A' for Active; 'I' for Inactive)
REMARK    1  A    between atoms: C5_5  and  C6_7 
REMARK    2  A    between atoms: C13_15  and  C15_18 
REMARK    3  A    between atoms: C15_18  and  N1_19 
ROOT
ATOM      1  C6  <0> d   1      -1.134   2.131   0.019  0.00  0.00     0.078 C 
ATOM      2  C7  <0> d   1      -0.016   1.349   0.009  0.00  0.00     0.129 A 
ATOM      3  C8  <0> d   1       1.325   1.818  -0.001  0.00  0.00     0.218 A 
ATOM      4  O2  <0> d   1       1.705   2.978   0.002  0.00  0.00    -0.284 OA
ATOM      5  C9  <0> d   1       2.159   0.604  -0.015  0.00  0.00     0.051 A 
ATOM      6  C10 <0> d   1       3.536   0.383  -0.029  0.00  0.00     0.021 A 
ATOM      7  C11 <0> d   1       4.020  -0.894  -0.039  0.00  0.00     0.041 A 
ATOM      8  C12 <0> d   1       3.144  -1.976  -0.037  0.00  0.00     0.118 A 
ATOM      9  C13 <0> d   1       1.773  -1.773  -0.024  0.00  0.00     0.041 A 
ATOM     10  C14 <0> d   1       1.266  -0.481  -0.013  0.00  0.00     0.101 A 
ATOM     11  O3  <0> d   1       0.002  -0.004   0.002  0.00  0.00    -0.305 OA
ATOM     12  O5  <0> d   1       3.636  -3.241  -0.048  0.00  0.00    -0.191 OA
ENDROOT
BRANCH   1  13
ATOM     13  C5  <0> d   1      -2.414   1.534   0.023  0.00  0.00     0.078 A 
ATOM     14  C4  <0> d   1      -3.624   2.201   0.033  0.00  0.00     0.040 A 
ATOM     15  C3  <0> d   1      -4.622   1.215   0.033  0.00  0.00     0.035 A 
ATOM     16  C2  <0> d   1      -4.000   0.015   0.023  0.00  0.00     0.050 A 
ATOM     17  C1  <0> d   1      -4.687  -1.326   0.020  0.00  0.00     0.076 C 
ATOM     18  O1  <0> d   1      -2.674   0.209   0.012  0.00  0.00    -0.316 OA
ENDBRANCH   1  13
BRANCH   9  19
ATOM     19  C15 <0> d   1       0.835  -2.952  -0.021  0.00  0.00     0.317 C 
BRANCH  19  20
ATOM     20  N1  <0> d   1       0.518  -3.328  -1.406  0.00  0.00     0.097 N 
ATOM     21  C19 <0> d   1      -0.198  -4.611  -1.452  0.00  0.00     0.299 C 
ATOM     22  C18 <0> d   1      -0.455  -4.993  -2.912  0.00  0.00     0.198 C 
ATOM     23  O4  <0> d   1      -1.183  -3.943  -3.554  0.00  0.00    -0.388 OA
ATOM     24  C17 <0> d   1      -0.514  -2.679  -3.527  0.00  0.00     0.198 C 
ATOM     25  C16 <0> d   1      -0.258  -2.274  -2.074  0.00  0.00     0.299 C 
ENDBRANCH  19  20
ENDBRANCH   9  19
TORSDOF 3
