REMARK  3 active torsions:
REMARK  status: ('A' for Active; 'I' for Inactive)
REMARK    1  A    between atoms: N2_13  and  C12_15 
REMARK    2  A    between atoms: C12_15  and  C13_16 
REMARK    3  A    between atoms: C20_24  and  C21_25 
ROOT
ATOM      1  C13 <0> d   1       1.840   6.722  -0.259  0.00  0.00     0.041 A 
ATOM      2  C14 <0> d   1       2.385   7.991  -0.377  0.00  0.00     0.118 A 
ATOM      3  C15 <0> d   1       3.764   8.164  -0.458  0.00  0.00     0.041 A 
ATOM      4  C16 <0> d   1       4.595   7.080  -0.421  0.00  0.00     0.021 A 
ATOM      5  C17 <0> d   1       4.060   5.797  -0.303  0.00  0.00     0.051 A 
ATOM      6  C18 <0> d   1       2.671   5.610  -0.221  0.00  0.00     0.101 A 
ATOM      7  O2  <0> d   1       2.394   4.292  -0.113  0.00  0.00    -0.305 OA
ATOM      8  C19 <0> d   1       3.519   3.539  -0.114  0.00  0.00     0.128 A 
ATOM      9  C20 <0> d   1       3.579   2.188  -0.020  0.00  0.00     0.054 C 
ATOM     10  C26 <0> d   1       4.665   4.455  -0.231  0.00  0.00     0.218 A 
ATOM     11  O3  <0> d   1       5.849   4.168  -0.263  0.00  0.00    -0.284 OA
ATOM     12  O4  <0> d   1       1.567   9.074  -0.413  0.00  0.00    -0.191 OA
ENDROOT
BRANCH   1  13
ATOM     13  C12 <0> d   1       0.345   6.550  -0.172  0.00  0.00     0.317 C 
BRANCH  13  14
ATOM     14  N2  <0> d   1      -0.072   6.592   1.236  0.00  0.00     0.093 N 
ATOM     15  C10 <0> d   1       0.161   7.924   1.815  0.00  0.00     0.283 C 
ATOM     16  C9  <0> d   1      -0.457   7.942   3.224  0.00  0.00     0.065 C 
ATOM     17  C3  <0> d   1      -1.894   7.489   3.094  0.00  0.00     0.020 A 
ATOM     18  C8  <0> d   1       0.312   6.939   4.091  0.00  0.00     0.020 C 
ATOM     19  C2  <0> d   1      -2.832   8.447   2.869  0.00  0.00     0.026 A 
ATOM     20  N1  <0> d   1      -2.249   6.187   3.193  0.00  0.00    -0.317 N 
ATOM     21  C1  <0> d   1      -4.173   8.097   2.676  0.00  0.00     0.007 A 
ATOM     22  C5  <0> d   1      -4.519   6.777   2.697  0.00  0.00     0.074 A 
ATOM     23  C4  <0> d   1      -3.527   5.816   2.935  0.00  0.00     0.247 A 
ATOM     24  O1  <0> d   1      -3.818   4.631   2.909  0.00  0.00    -0.268 OA
ATOM     25  C6  <0> d   1      -1.319   5.128   3.586  0.00  0.00     0.138 C 
ATOM     26  C7  <0> d   1       0.133   5.554   3.462  0.00  0.00     0.033 C 
ATOM     27  C11 <0> d   1       0.604   5.550   2.016  0.00  0.00     0.279 C 
ENDBRANCH  13  14
ENDBRANCH   1  13
BRANCH   9  28
ATOM     28  C21 <0> d   1       2.341   1.395  -0.020  0.00  0.00    -0.016 A 
ATOM     29  C25 <0> d   1       2.391  -0.003  -0.048  0.00  0.00     0.127 A 
ATOM     30  N3  <0> d   1       1.281  -0.711  -0.049  0.00  0.00    -0.272 NA
ATOM     31  C24 <0> d   1       0.090  -0.142  -0.023  0.00  0.00     0.116 A 
ATOM     32  C23 <0> d   1      -0.045   1.235   0.006  0.00  0.00     0.020 A 
ATOM     33  C22 <0> d   1       1.088   2.027   0.008  0.00  0.00     0.014 A 
ENDBRANCH   9  28
TORSDOF 3
