REMARK  4 active torsions:
REMARK  status: ('A' for Active; 'I' for Inactive)
REMARK    1  A    between atoms: C9_10  and  C10_11 
REMARK    2  A    between atoms: N1_19  and  C17_22 
REMARK    3  A    between atoms: C17_22  and  C18_23 
REMARK    4  A    between atoms: C18_23  and  N2_24 
ROOT
ATOM      1  C1  <0> d   1       2.394  10.120  -1.662  0.00  0.00     0.054 C 
ATOM      2  C2  <0> d   1       3.361   9.460  -0.712  0.00  0.00     0.007 A 
ATOM      3  C3  <0> d   1       3.302   8.089  -0.504  0.00  0.00     0.087 A 
ATOM      4  C4  <0> d   1       4.191   7.471   0.369  0.00  0.00     0.005 A 
ATOM      5  C5  <0> d   1       5.131   8.213   1.032  0.00  0.00     0.030 A 
ATOM      6  C6  <0> d   1       5.200   9.590   0.833  0.00  0.00     0.052 A 
ATOM      7  C7  <0> d   1       4.309  10.225  -0.048  0.00  0.00     0.099 A 
ATOM      8  O1  <0> d   1       4.581  11.547  -0.064  0.00  0.00    -0.305 OA
ATOM      9  C8  <0> d   1       5.612  11.851   0.759  0.00  0.00     0.128 A 
ATOM     10  C9  <0> d   1       6.128  13.097   0.966  0.00  0.00     0.060 C 
ATOM     11  C14 <0> d   1       6.066  10.653   1.373  0.00  0.00     0.218 A 
ATOM     12  O2  <0> d   1       6.978  10.530   2.175  0.00  0.00    -0.284 OA
ATOM     13  C15 <0> d   1       4.135   5.982   0.600  0.00  0.00     0.316 C 
ATOM     14  N1  <0> d   1       2.839   5.461   0.141  0.00  0.00     0.117 N 
ATOM     15  C16 <0> d   1       2.548   5.948  -1.217  0.00  0.00     0.447 C 
ATOM     16  O3  <0> d   1       2.360   7.364  -1.163  0.00  0.00    -0.320 OA
ENDROOT
BRANCH  14  17
ATOM     17  C17 <0> d   1       2.815   3.993   0.191  0.00  0.00     0.305 C 
BRANCH  17  18
ATOM     18  C18 <0> d   1       1.387   3.498  -0.050  0.00  0.00     0.302 C 
BRANCH  18  19
ATOM     19  N2  <0> d   1       1.362   2.030  -0.000  0.00  0.00     0.094 N 
ATOM     20  C22 <0> d   1       2.108   1.530   1.164  0.00  0.00     0.298 C 
ATOM     21  C21 <0> d   1       2.108  -0.001   1.144  0.00  0.00     0.198 C 
ATOM     22  O4  <0> d   1       0.757  -0.472   1.123  0.00  0.00    -0.388 OA
ATOM     23  C20 <0> d   1       0.002  -0.004   0.002  0.00  0.00     0.198 C 
ATOM     24  C19 <0> d   1      -0.019   1.527   0.010  0.00  0.00     0.298 C 
ENDBRANCH  18  19
ENDBRANCH  17  18
ENDBRANCH  14  17
BRANCH  10  25
ATOM     25  C10 <0> d   1       5.580  14.209   0.288  0.00  0.00     0.007 A 
ATOM     26  S1  <0> d   1       4.234  14.262  -0.882  0.00  0.00    -0.102 SA
ATOM     27  C13 <0> d   1       4.229  15.967  -1.197  0.00  0.00     0.050 A 
ATOM     28  C12 <0> d   1       5.242  16.431  -0.418  0.00  0.00     0.008 A 
ATOM     29  C11 <0> d   1       5.953  15.548   0.355  0.00  0.00     0.019 A 
ENDBRANCH  10  25
TORSDOF 4
