REMARK  9 active torsions:
REMARK  status: ('A' for Active; 'I' for Inactive)
REMARK    1  A    between atoms: C2_2  and  C3_3 
REMARK    2  A    between atoms: C3_3  and  O1_4 
REMARK    3  A    between atoms: O1_4  and  C4_5 
REMARK    4  A    between atoms: C4_5  and  C5_7 
REMARK    5  A    between atoms: C8_10  and  O3_13 
REMARK    6  A    between atoms: O3_13  and  C11_14 
REMARK    7  A    between atoms: C13_19  and  C14_20 
REMARK    8  A    between atoms: C17_23  and  O5_27 
REMARK    9  A    between atoms: O5_27  and  C20_28 
ROOT
ATOM      1  C11 <0> d   1       2.323  -8.713   3.492  0.00  0.00     0.124 A 
ATOM      2  C12 <0> d   1       2.917  -8.059   4.519  0.00  0.00     0.149 A 
ATOM      3  N1  <0> d   1       3.530  -8.986   5.302  0.00  0.00    -0.286 N 
ATOM      4  H1  <0> d   1       4.035  -8.804   6.110  0.00  0.00     0.188 HD
ATOM      5  N2  <0> d   1       3.305 -10.248   4.739  0.00  0.00    -0.172 NA
ATOM      6  C13 <0> d   1       2.576 -10.092   3.654  0.00  0.00     0.125 A 
ENDROOT
BRANCH   1   7
ATOM      7  O3  <0> d   1       1.605  -8.142   2.486  0.00  0.00    -0.307 OA
BRANCH   7   8
ATOM      8  C8  <0> d   1       1.563  -6.787   2.422  0.00  0.00     0.076 A 
ATOM      9  C7  <0> d   1       2.705  -6.074   2.074  0.00  0.00     0.038 A 
ATOM     10  C6  <0> d   1       2.667  -4.700   2.007  0.00  0.00     0.020 A 
ATOM     11  C5  <0> d   1       1.478  -4.021   2.292  0.00  0.00     0.039 A 
ATOM     12  C10 <0> d   1       0.334  -4.741   2.647  0.00  0.00     0.020 A 
ATOM     13  C9  <0> d   1       0.379  -6.116   2.706  0.00  0.00     0.038 A 
BRANCH  11  14
ATOM     14  C4  <0> d   1       1.433  -2.549   2.222  0.00  0.00     0.293 C 
ATOM     15  O2  <0> d   1       0.400  -1.960   2.474  0.00  0.00    -0.259 OA
BRANCH  14  16
ATOM     16  O1  <0> d   1       2.537  -1.856   1.879  0.00  0.00    -0.318 OA
BRANCH  16  17
ATOM     17  C3  <0> d   1       2.421  -0.433   1.831  0.00  0.00     0.178 C 
BRANCH  17  18
ATOM     18  C2  <0> d   1       3.765   0.175   1.426  0.00  0.00     0.022 C 
ATOM     19  C1  <0> d   1       3.641   1.699   1.376  0.00  0.00     0.007 C 
ENDBRANCH  17  18
ENDBRANCH  16  17
ENDBRANCH  14  16
ENDBRANCH  11  14
ENDBRANCH   7   8
ENDBRANCH   1   7
BRANCH   6  20
ATOM     20  C14 <0> d   1       2.105 -11.175   2.757  0.00  0.00     0.034 A 
ATOM     21  C19 <0> d   1       2.429 -12.507   3.036  0.00  0.00     0.122 A 
ATOM     22  C18 <0> d   1       1.982 -13.514   2.198  0.00  0.00     0.077 A 
ATOM     23  O4  <0> d   1       3.175 -12.812   4.130  0.00  0.00    -0.191 OA
ATOM     24  C17 <0> d   1       1.224 -13.201   1.079  0.00  0.00     0.071 A 
ATOM     25  C16 <0> d   1       0.907 -11.878   0.799  0.00  0.00     0.038 A 
ATOM     26  C15 <0> d   1       1.343 -10.869   1.632  0.00  0.00     0.020 A 
BRANCH  24  27
ATOM     27  O5  <0> d   1       0.791 -14.191   0.255  0.00  0.00    -0.351 OA
BRANCH  27  28
ATOM     28  C20 <0> d   1       1.154 -15.529   0.602  0.00  0.00     0.171 C 
ATOM     29  C21 <0> d   1       0.580 -16.497  -0.434  0.00  0.00     0.034 C 
ENDBRANCH  27  28
ENDBRANCH  24  27
ENDBRANCH   6  20
TORSDOF 9
