REMARK  3 active torsions:
REMARK  status: ('A' for Active; 'I' for Inactive)
REMARK    1  A    between atoms: C9_10  and  C10_11 
REMARK    2  A    between atoms: N1_19  and  C17_22 
REMARK    3  A    between atoms: C17_22  and  C18_23 
ROOT
ATOM      1  C1  <0> d   1      -0.018   1.503   0.010  0.00  0.00     0.054 C 
ATOM      2  C2  <0> d   1       0.002  -0.004   0.002  0.00  0.00     0.007 A 
ATOM      3  C3  <0> d   1       0.006  -0.690  -1.205  0.00  0.00     0.087 A 
ATOM      4  C4  <0> d   1       0.026  -2.081  -1.223  0.00  0.00     0.005 A 
ATOM      5  C5  <0> d   1       0.040  -2.784  -0.049  0.00  0.00     0.030 A 
ATOM      6  C6  <0> d   1       0.036  -2.107   1.169  0.00  0.00     0.052 A 
ATOM      7  C7  <0> d   1       0.023  -0.703   1.200  0.00  0.00     0.099 A 
ATOM      8  O1  <0> d   1       0.030  -0.296   2.488  0.00  0.00    -0.305 OA
ATOM      9  C8  <0> d   1       0.050  -1.348   3.339  0.00  0.00     0.128 A 
ATOM     10  C9  <0> d   1       0.060  -1.271   4.701  0.00  0.00     0.060 C 
ATOM     11  C14 <0> d   1       0.047  -2.546   2.576  0.00  0.00     0.218 A 
ATOM     12  O2  <0> d   1       0.062  -3.692   2.995  0.00  0.00    -0.284 OA
ATOM     13  C15 <0> d   1       0.038  -2.834  -2.530  0.00  0.00     0.317 C 
ATOM     14  N1  <0> d   1      -0.391  -1.942  -3.616  0.00  0.00     0.121 N 
ATOM     15  C16 <0> d   1       0.357  -0.676  -3.558  0.00  0.00     0.448 C 
ATOM     16  O3  <0> d   1      -0.013   0.018  -2.365  0.00  0.00    -0.320 OA
ENDROOT
BRANCH  14  17
ATOM     17  C17 <0> d   1      -0.229  -2.590  -4.924  0.00  0.00     0.332 C 
BRANCH  17  18
ATOM     18  C18 <0> d   1      -0.899  -1.756  -5.985  0.00  0.00     0.037 A 
ATOM     19  N2  <0> d   1      -0.242  -0.754  -6.537  0.00  0.00    -0.368 N 
ATOM     20  C22 <0> d   1      -0.787  -0.001  -7.473  0.00  0.00     0.088 A 
ATOM     21  H19 <0> d   1       0.666  -0.570  -6.251  0.00  0.00     0.165 HD
ATOM     22  C21 <0> d   1      -2.080  -0.231  -7.902  0.00  0.00     0.017 A 
ATOM     23  C20 <0> d   1      -2.804  -1.271  -7.340  0.00  0.00     0.003 A 
ATOM     24  C19 <0> d   1      -2.196  -2.045  -6.363  0.00  0.00     0.027 A 
ENDBRANCH  17  18
ENDBRANCH  14  17
BRANCH  10  25
ATOM     25  C10 <0> d   1       0.051  -0.010   5.338  0.00  0.00     0.007 A 
ATOM     26  S1  <0> d   1       0.026   1.617   4.608  0.00  0.00    -0.102 SA
ATOM     27  C13 <0> d   1       0.024   2.539   6.012  0.00  0.00     0.050 A 
ATOM     28  C12 <0> d   1       0.050   1.624   7.014  0.00  0.00     0.008 A 
ATOM     29  C11 <0> d   1       0.064   0.287   6.698  0.00  0.00     0.019 A 
ENDBRANCH  10  25
TORSDOF 3
