REMARK  7 active torsions:
REMARK  status: ('A' for Active; 'I' for Inactive)
REMARK    1  A    between atoms: O1_2  and  C2_3 
REMARK    2  A    between atoms: C5_6  and  C8_9 
REMARK    3  A    between atoms: C8_9  and  C9_10 
REMARK    4  A    between atoms: C9_10  and  C10_12 
REMARK    5  A    between atoms: C13_15  and  O5_26 
REMARK    6  A    between atoms: C14_16  and  C16_19 
REMARK    7  A    between atoms: C16_19  and  N1_20 
ROOT
ATOM      1  C10 <0> d   1      -3.021   3.050   1.722  0.00  0.00     0.047 A 
ATOM      2  C11 <0> d   1      -3.821   3.507   0.665  0.00  0.00     0.021 A 
ATOM      3  C12 <0> d   1      -4.993   4.154   0.926  0.00  0.00     0.038 A 
ATOM      4  C13 <0> d   1      -5.398   4.377   2.240  0.00  0.00     0.076 A 
ATOM      5  C14 <0> d   1      -4.616   3.937   3.298  0.00  0.00     0.041 A 
ATOM      6  C15 <0> d   1      -3.427   3.273   3.049  0.00  0.00     0.131 A 
ATOM      7  O3  <0> d   1      -2.659   2.841   4.080  0.00  0.00    -0.190 OA
ENDROOT
BRANCH   1   8
ATOM      8  C9  <0> d   1      -1.764   2.350   1.444  0.00  0.00     0.166 C 
ATOM      9  O2  <0> d   1      -1.072   1.961   2.361  0.00  0.00    -0.292 OA
BRANCH   8  10
ATOM     10  C8  <0> d   1      -1.333   2.113   0.020  0.00  0.00     0.122 C 
BRANCH  10  11
ATOM     11  C5  <0> d   1      -0.017   1.378   0.010  0.00  0.00    -0.051 A 
ATOM     12  C4  <0> d   1       0.002  -0.004   0.002  0.00  0.00     0.010 A 
ATOM     13  C3  <0> d   1       1.207  -0.680  -0.013  0.00  0.00     0.037 A 
ATOM     14  C2  <0> d   1       2.399   0.030  -0.021  0.00  0.00     0.068 A 
ATOM     15  C7  <0> d   1       2.377   1.417  -0.013  0.00  0.00     0.037 A 
ATOM     16  C6  <0> d   1       1.170   2.088   0.002  0.00  0.00     0.010 A 
BRANCH  14  17
ATOM     17  O1  <0> d   1       3.586  -0.632  -0.035  0.00  0.00    -0.356 OA
ATOM     18  C1  <0> d   1       4.772   0.164  -0.042  0.00  0.00     0.210 C 
ENDBRANCH  14  17
ENDBRANCH  10  11
ENDBRANCH   8  10
ENDBRANCH   1   8
BRANCH   5  19
ATOM     19  C16 <0> d   1      -5.061   4.182   4.717  0.00  0.00     0.317 C 
BRANCH  19  20
ATOM     20  N1  <0> d   1      -4.530   5.470   5.181  0.00  0.00     0.097 N 
ATOM     21  C20 <0> d   1      -5.131   5.856   6.466  0.00  0.00     0.299 C 
ATOM     22  C19 <0> d   1      -4.596   7.229   6.882  0.00  0.00     0.198 C 
ATOM     23  O4  <0> d   1      -3.168   7.179   6.946  0.00  0.00    -0.388 OA
ATOM     24  C18 <0> d   1      -2.550   6.807   5.711  0.00  0.00     0.198 C 
ATOM     25  C17 <0> d   1      -3.064   5.430   5.283  0.00  0.00     0.299 C 
ENDBRANCH  19  20
ENDBRANCH   5  19
BRANCH   4  26
ATOM     26  O5  <0> d   1      -6.564   5.027   2.486  0.00  0.00    -0.360 OA
ATOM     27  H22 <0> d   1      -6.886   5.204   3.522  0.00  0.00     0.217 HD
ENDBRANCH   4  26
TORSDOF 7
