REMARK  6 active torsions:
REMARK  status: ('A' for Active; 'I' for Inactive)
REMARK    1  A    between atoms: N2_5  and  C6_8 
REMARK    2  A    between atoms: C6_8  and  C7_9 
REMARK    3  A    between atoms: C8_10  and  O5_30 
REMARK    4  A    between atoms: C14_17  and  C15_18 
REMARK    5  A    between atoms: C18_21  and  O3_26 
REMARK    6  A    between atoms: C20_23  and  O2_24 
ROOT
ATOM      1  C7  <0> d   1       0.013  -3.736   2.751  0.00  0.00     0.038 A 
ATOM      2  C8  <0> d   1       1.368  -3.782   3.036  0.00  0.00     0.076 A 
ATOM      3  C9  <0> d   1       1.821  -4.315   4.240  0.00  0.00     0.038 A 
ATOM      4  C10 <0> d   1       0.929  -4.798   5.155  0.00  0.00     0.021 A 
ATOM      5  C11 <0> d   1      -0.438  -4.757   4.882  0.00  0.00     0.051 A 
ATOM      6  C12 <0> d   1      -0.907  -4.218   3.674  0.00  0.00     0.101 A 
ATOM      7  O1  <0> d   1      -2.256  -4.282   3.641  0.00  0.00    -0.305 OA
ATOM      8  C13 <0> d   1      -2.761  -4.834   4.769  0.00  0.00     0.128 A 
ATOM      9  C14 <0> d   1      -4.077  -5.039   5.043  0.00  0.00     0.055 C 
ATOM     10  C23 <0> d   1      -1.631  -5.185   5.637  0.00  0.00     0.218 A 
ATOM     11  O4  <0> d   1      -1.669  -5.703   6.740  0.00  0.00    -0.284 OA
ENDROOT
BRANCH   9  12
ATOM     12  C15 <0> d   1      -5.104  -4.506   4.144  0.00  0.00     0.000 A 
ATOM     13  C20 <0> d   1      -6.438  -4.398   4.579  0.00  0.00     0.081 A 
ATOM     14  C19 <0> d   1      -7.397  -3.888   3.722  0.00  0.00     0.074 A 
ATOM     15  C18 <0> d   1      -7.042  -3.496   2.439  0.00  0.00     0.070 A 
ATOM     16  C17 <0> d   1      -5.723  -3.609   2.009  0.00  0.00     0.038 A 
ATOM     17  C16 <0> d   1      -4.764  -4.105   2.845  0.00  0.00     0.017 A 
BRANCH  13  18
ATOM     18  O2  <0> d   1      -6.780  -4.788   5.833  0.00  0.00    -0.355 OA
ATOM     19  C21 <0> d   1      -8.153  -4.649   6.203  0.00  0.00     0.210 C 
ENDBRANCH  13  18
BRANCH  15  20
ATOM     20  O3  <0> d   1      -7.986  -3.001   1.599  0.00  0.00    -0.356 OA
ATOM     21  C22 <0> d   1      -7.554  -2.615   0.293  0.00  0.00     0.210 C 
ENDBRANCH  15  20
ENDBRANCH   9  12
BRANCH   1  22
ATOM     22  C6  <0> d   1      -0.463  -3.157   1.444  0.00  0.00     0.317 C 
BRANCH  22  23
ATOM     23  N2  <0> d   1      -0.691  -1.714   1.601  0.00  0.00     0.096 N 
ATOM     24  C3  <0> d   1      -1.377  -1.158   0.427  0.00  0.00     0.303 C 
ATOM     25  C2  <0> d   1      -1.666   0.326   0.663  0.00  0.00     0.302 C 
ATOM     26  N1  <0> d   1      -0.404   1.034   0.917  0.00  0.00     0.087 N 
ATOM     27  C1  <0> d   1      -0.632   2.477   1.074  0.00  0.00     0.310 C 
ATOM     28  C5  <0> d   1       0.282   0.478   2.091  0.00  0.00     0.302 C 
ATOM     29  C4  <0> d   1       0.571  -1.006   1.855  0.00  0.00     0.303 C 
ENDBRANCH  22  23
ENDBRANCH   1  22
BRANCH   2  30
ATOM     30  O5  <0> d   1       2.262  -3.305   2.133  0.00  0.00    -0.360 OA
ATOM     31  H26 <0> d   1       2.470  -2.367   2.243  0.00  0.00     0.217 HD
ENDBRANCH   2  30
TORSDOF 6
