REMARK  5 active torsions:
REMARK  status: ('A' for Active; 'I' for Inactive)
REMARK    1  A    between atoms: C2_2  and  N1_3 
REMARK    2  A    between atoms: N2_6  and  C7_9 
REMARK    3  A    between atoms: C7_9  and  C8_10 
REMARK    4  A    between atoms: C9_11  and  O3_27 
REMARK    5  A    between atoms: C15_18  and  C16_19 
ROOT
ATOM      1  C8  <0> d   1       1.503  -4.110   4.255  0.00  0.00     0.038 A 
ATOM      2  C9  <0> d   1       0.514  -4.812   4.927  0.00  0.00     0.076 A 
ATOM      3  C10 <0> d   1       0.666  -6.170   5.193  0.00  0.00     0.038 A 
ATOM      4  C11 <0> d   1       1.796  -6.825   4.792  0.00  0.00     0.021 A 
ATOM      5  C12 <0> d   1       2.799  -6.132   4.114  0.00  0.00     0.051 A 
ATOM      6  C13 <0> d   1       2.655  -4.763   3.836  0.00  0.00     0.101 A 
ATOM      7  O1  <0> d   1       3.742  -4.316   3.171  0.00  0.00    -0.305 OA
ATOM      8  C14 <0> d   1       4.646  -5.302   2.962  0.00  0.00     0.127 A 
ATOM      9  C15 <0> d   1       5.837  -5.176   2.326  0.00  0.00     0.053 C 
ATOM     10  C22 <0> d   1       4.105  -6.533   3.561  0.00  0.00     0.218 A 
ATOM     11  O2  <0> d   1       4.617  -7.639   3.584  0.00  0.00    -0.284 OA
ENDROOT
BRANCH   1  12
ATOM     12  C7  <0> d   1       1.325  -2.640   3.974  0.00  0.00     0.317 C 
BRANCH  12  13
ATOM     13  N2  <0> d   1       0.656  -2.467   2.678  0.00  0.00     0.096 N 
ATOM     14  C4  <0> d   1       0.252  -1.068   2.477  0.00  0.00     0.303 C 
ATOM     15  C3  <0> d   1      -0.509  -0.945   1.155  0.00  0.00     0.302 C 
ATOM     16  N1  <0> d   1       0.348  -1.407   0.054  0.00  0.00     0.091 N 
ATOM     17  C6  <0> d   1       0.752  -2.805   0.255  0.00  0.00     0.302 C 
ATOM     18  C5  <0> d   1       1.513  -2.929   1.577  0.00  0.00     0.303 C 
BRANCH  16  19
ATOM     19  C2  <0> d   1      -0.321  -1.233  -1.242  0.00  0.00     0.268 C 
ATOM     20  C1  <0> d   1      -0.501   0.259  -1.528  0.00  0.00     0.037 C 
ENDBRANCH  16  19
ENDBRANCH  12  13
ENDBRANCH   1  12
BRANCH   2  21
ATOM     21  O3  <0> d   1      -0.612  -4.170   5.329  0.00  0.00    -0.360 OA
ATOM     22  H24 <0> d   1      -1.324  -4.177   4.675  0.00  0.00     0.217 HD
ENDBRANCH   2  21
BRANCH   9  23
ATOM     23  C16 <0> d   1       6.313  -3.848   1.913  0.00  0.00    -0.034 A 
ATOM     24  C21 <0> d   1       7.456  -3.727   1.115  0.00  0.00     0.011 A 
ATOM     25  C20 <0> d   1       7.892  -2.478   0.726  0.00  0.00     0.001 A 
ATOM     26  C19 <0> d   1       7.209  -1.345   1.134  0.00  0.00     0.000 A 
ATOM     27  C18 <0> d   1       6.081  -1.456   1.928  0.00  0.00     0.001 A 
ATOM     28  C17 <0> d   1       5.628  -2.697   2.320  0.00  0.00     0.011 A 
ENDBRANCH   9  23
TORSDOF 5
