REMARK  10 active torsions:
REMARK  status: ('A' for Active; 'I' for Inactive)
REMARK    1  A    between atoms: C3_3  and  C19_25 
REMARK    2  A    between atoms: C8_9  and  O3_13 
REMARK    3  A    between atoms: O3_13  and  C11_14 
REMARK    4  A    between atoms: C11_14  and  C12_15 
REMARK    5  A    between atoms: C12_15  and  N1_16 
REMARK    6  A    between atoms: N2_19  and  C17_22 
REMARK    7  A    between atoms: C17_22  and  C18_23 
REMARK    8  A    between atoms: C18_23  and  O4_24 
REMARK    9  A    between atoms: C22_28  and  O6_33 
REMARK   10  A    between atoms: C23_29  and  O5_31 
ROOT
ATOM      1  C1  <0> d   1       0.155   1.471  -0.570  0.00  0.00     0.077 C 
ATOM      2  C2  <0> d   1       0.136  -0.031  -0.447  0.00  0.00     0.065 C 
ATOM      3  C3  <0> d   1      -1.065  -0.661  -0.366  0.00  0.00     0.055 C 
ATOM      4  C4  <0> d   1      -1.072  -2.130  -0.228  0.00  0.00     0.198 C 
ATOM      5  O1  <0> d   1      -2.088  -2.788  -0.374  0.00  0.00    -0.286 OA
ATOM      6  C5  <0> d   1       0.224  -2.755   0.097  0.00  0.00     0.049 A 
ATOM      7  C6  <0> d   1       0.309  -4.086   0.503  0.00  0.00     0.021 A 
ATOM      8  C7  <0> d   1       1.528  -4.626   0.801  0.00  0.00     0.038 A 
ATOM      9  C8  <0> d   1       2.683  -3.852   0.702  0.00  0.00     0.071 A 
ATOM     10  C9  <0> d   1       2.614  -2.530   0.298  0.00  0.00     0.075 A 
ATOM     11  C10 <0> d   1       1.383  -1.966  -0.013  0.00  0.00     0.092 A 
ATOM     12  O2  <0> d   1       1.298  -0.685  -0.426  0.00  0.00    -0.313 OA
ENDROOT
BRANCH   9  13
ATOM     13  O3  <0> d   1       3.887  -4.401   1.004  0.00  0.00    -0.349 OA
BRANCH  13  14
ATOM     14  C11 <0> d   1       3.892  -5.769   1.414  0.00  0.00     0.206 C 
BRANCH  14  15
ATOM     15  C12 <0> d   1       5.328  -6.208   1.710  0.00  0.00     0.299 C 
BRANCH  15  16
ATOM     16  N1  <0> d   1       5.842  -5.456   2.863  0.00  0.00     0.093 N 
ATOM     17  C16 <0> d   1       5.275  -5.966   4.119  0.00  0.00     0.300 C 
ATOM     18  C15 <0> d   1       5.788  -5.120   5.287  0.00  0.00     0.265 C 
ATOM     19  N2  <0> d   1       7.255  -5.183   5.330  0.00  0.00    -0.066 N 
ATOM     20  C14 <0> d   1       7.806  -4.648   4.079  0.00  0.00     0.265 C 
ATOM     21  H33 <0> d   1       7.547  -6.142   5.443  0.00  0.00     0.280 HD
ATOM     22  C13 <0> d   1       7.311  -5.490   2.901  0.00  0.00     0.300 C 
BRANCH  19  23
ATOM     23  C17 <0> d   1       7.745  -4.386   6.462  0.00  0.00     0.260 C 
BRANCH  23  24
ATOM     24  C18 <0> d   1       7.273  -5.016   7.774  0.00  0.00     0.192 C 
BRANCH  24  25
ATOM     25  O4  <0> d   1       7.875  -6.303   7.928  0.00  0.00    -0.399 OA
ATOM     26  H23 <0> d   1       7.620  -6.762   8.740  0.00  0.00     0.209 HD
ENDBRANCH  24  25
ENDBRANCH  23  24
ENDBRANCH  19  23
ENDBRANCH  15  16
ENDBRANCH  14  15
ENDBRANCH  13  14
ENDBRANCH   9  13
BRANCH   3  27
ATOM     27  C19 <0> d   1      -2.334   0.105  -0.415  0.00  0.00    -0.017 A 
ATOM     28  C24 <0> d   1      -3.214  -0.069  -1.481  0.00  0.00     0.052 A 
ATOM     29  C23 <0> d   1      -4.399   0.644  -1.520  0.00  0.00     0.102 A 
ATOM     30  C22 <0> d   1      -4.704   1.542  -0.500  0.00  0.00     0.101 A 
ATOM     31  C21 <0> d   1      -3.825   1.720   0.557  0.00  0.00     0.040 A 
ATOM     32  C20 <0> d   1      -2.644   1.006   0.603  0.00  0.00     0.015 A 
BRANCH  29  33
ATOM     33  O5  <0> d   1      -5.263   0.472  -2.556  0.00  0.00    -0.353 OA
ATOM     34  C25 <0> d   1      -4.886  -0.466  -3.566  0.00  0.00     0.210 C 
ENDBRANCH  29  33
BRANCH  30  35
ATOM     35  O6  <0> d   1      -5.867   2.247  -0.542  0.00  0.00    -0.353 OA
ATOM     36  C26 <0> d   1      -6.117   3.150   0.537  0.00  0.00     0.210 C 
ENDBRANCH  30  35
ENDBRANCH   3  27
TORSDOF 10
