REMARK  5 active torsions:
REMARK  status: ('A' for Active; 'I' for Inactive)
REMARK    1  A    between atoms: C2_2  and  O1_3 
REMARK    2  A    between atoms: O1_3  and  C3_4 
REMARK    3  A    between atoms: C8_9  and  C9_10 
REMARK    4  A    between atoms: C11_12  and  O2_13 
REMARK    5  A    between atoms: C15_17  and  N1_21 
ROOT
ATOM      1  C9  <0> d   1       3.527   3.264  -0.013  0.00  0.00     0.091 A 
ATOM      2  C10 <0> d   1       3.651   1.909  -0.021  0.00  0.00     0.075 A 
ATOM      3  C11 <0> d   1       2.489   1.103  -0.015  0.00  0.00     0.081 A 
ATOM      4  C12 <0> d   1       1.185   1.792   0.000  0.00  0.00     0.031 A 
ATOM      5  C13 <0> d   1      -0.013   1.076   0.008  0.00  0.00     0.019 A 
ATOM      6  C14 <0> d   1      -1.203   1.745   0.017  0.00  0.00     0.030 A 
ATOM      7  C15 <0> d   1      -1.227   3.139   0.029  0.00  0.00     0.028 A 
ATOM      8  C16 <0> d   1      -0.045   3.865   0.022  0.00  0.00     0.067 A 
ATOM      9  C17 <0> d   1       1.171   3.198   0.008  0.00  0.00     0.091 A 
ATOM     10  O3  <0> d   1       2.335   3.881   0.001  0.00  0.00    -0.309 OA
ENDROOT
BRANCH   1  11
ATOM     11  C8  <0> d   1       4.751   4.088  -0.020  0.00  0.00     0.031 A 
ATOM     12  C3  <0> d   1       4.893   5.132  -0.944  0.00  0.00     0.081 A 
ATOM     13  C4  <0> d   1       6.047   5.900  -0.941  0.00  0.00     0.038 A 
ATOM     14  C5  <0> d   1       7.052   5.636  -0.031  0.00  0.00     0.003 A 
ATOM     15  C6  <0> d   1       6.915   4.605   0.884  0.00  0.00     0.001 A 
ATOM     16  C7  <0> d   1       5.773   3.835   0.899  0.00  0.00     0.017 A 
BRANCH  12  17
ATOM     17  O1  <0> d   1       3.904   5.391  -1.838  0.00  0.00    -0.351 OA
BRANCH  17  18
ATOM     18  C2  <0> d   1       4.119   6.470  -2.749  0.00  0.00     0.171 C 
ATOM     19  C1  <0> d   1       2.906   6.609  -3.671  0.00  0.00     0.034 C 
ENDBRANCH  17  18
ENDBRANCH  12  17
ENDBRANCH   1  11
BRANCH   3  20
ATOM     20  O2  <0> d   1       2.562  -0.115  -0.022  0.00  0.00    -0.360 OA
ATOM     21  H16 <0> d   1       1.644  -0.721  -0.017  0.00  0.00     0.217 HD
ENDBRANCH   3  20
BRANCH   7  22
ATOM     22  N1  <0> d   1      -2.448   3.809   0.043  0.00  0.00    -0.399 N 
ATOM     23  H14 <0> d   1      -2.472   4.908   0.052  0.00  0.00     0.156 HD
ATOM     24  H15 <0> d   1      -3.388   3.238   0.045  0.00  0.00     0.156 HD
ENDBRANCH   7  22
TORSDOF 5
