REMARK  6 active torsions:
REMARK  status: ('A' for Active; 'I' for Inactive)
REMARK    1  A    between atoms: O1_2  and  C2_3 
REMARK    2  A    between atoms: C5_6  and  C8_9 
REMARK    3  A    between atoms: C14_16  and  O4_33 
REMARK    4  A    between atoms: C15_17  and  C17_20 
REMARK    5  A    between atoms: C17_20  and  N1_21 
REMARK    6  A    between atoms: C22_26  and  C23_27 
ROOT
ATOM      1  C8  <0> d   1       1.217  -0.283   5.941  0.00  0.00     0.053 C 
ATOM      2  C9  <0> d   1       2.373  -0.994   5.985  0.00  0.00     0.127 A 
ATOM      3  C10 <0> d   1       3.086  -1.418   7.199  0.00  0.00     0.218 A 
ATOM      4  O2  <0> d   1       2.773  -1.210   8.359  0.00  0.00    -0.284 OA
ATOM      5  C11 <0> d   1       4.263  -2.151   6.699  0.00  0.00     0.051 A 
ATOM      6  C12 <0> d   1       5.324  -2.800   7.334  0.00  0.00     0.021 A 
ATOM      7  C13 <0> d   1       6.296  -3.404   6.588  0.00  0.00     0.038 A 
ATOM      8  C14 <0> d   1       6.232  -3.373   5.197  0.00  0.00     0.076 A 
ATOM      9  C15 <0> d   1       5.185  -2.732   4.555  0.00  0.00     0.036 A 
ATOM     10  C16 <0> d   1       4.187  -2.114   5.298  0.00  0.00     0.101 A 
ATOM     11  O3  <0> d   1       3.082  -1.437   4.920  0.00  0.00    -0.305 OA
ENDROOT
BRANCH   9  12
ATOM     12  C17 <0> d   1       5.128  -2.707   3.049  0.00  0.00     0.279 C 
BRANCH  12  13
ATOM     13  N1  <0> d   1       4.185  -3.729   2.577  0.00  0.00    -0.059 N 
ATOM     14  C22 <0> d   1       4.619  -5.073   2.982  0.00  0.00     0.223 C 
ATOM     15  C21 <0> d   1       3.696  -6.119   2.353  0.00  0.00     0.038 C 
ATOM     16  C20 <0> d   1       2.258  -5.867   2.813  0.00  0.00     0.004 C 
ATOM     17  C19 <0> d   1       1.847  -4.445   2.422  0.00  0.00     0.028 C 
ATOM     18  C18 <0> d   1       2.823  -3.447   3.049  0.00  0.00     0.236 C 
ATOM     19  H26 <0> d   1       4.172  -3.698   1.478  0.00  0.00     0.281 HD
BRANCH  14  20
ATOM     20  C23 <0> d   1       6.033  -5.305   2.515  0.00  0.00    -0.010 A 
ATOM     21  C27 <0> d   1       6.496  -4.705   1.360  0.00  0.00     0.125 A 
ATOM     22  N2  <0> d   1       7.732  -4.904   0.946  0.00  0.00    -0.273 NA
ATOM     23  C26 <0> d   1       8.571  -5.675   1.610  0.00  0.00     0.116 A 
ATOM     24  C25 <0> d   1       8.179  -6.307   2.775  0.00  0.00     0.020 A 
ATOM     25  C24 <0> d   1       6.888  -6.119   3.244  0.00  0.00     0.012 A 
ENDBRANCH  14  20
ENDBRANCH  12  13
ENDBRANCH   9  12
BRANCH   8  26
ATOM     26  O4  <0> d   1       7.203  -3.975   4.466  0.00  0.00    -0.360 OA
ATOM     27  H27 <0> d   1       7.157  -3.954   3.367  0.00  0.00     0.217 HD
ENDBRANCH   8  26
BRANCH   1  28
ATOM     28  C5  <0> d   1       0.589   0.017   4.648  0.00  0.00    -0.033 A 
ATOM     29  C4  <0> d   1      -0.668   0.632   4.604  0.00  0.00     0.014 A 
ATOM     30  C3  <0> d   1      -1.250   0.916   3.389  0.00  0.00     0.037 A 
ATOM     31  C2  <0> d   1      -0.596   0.585   2.208  0.00  0.00     0.068 A 
ATOM     32  C7  <0> d   1       0.653  -0.026   2.246  0.00  0.00     0.037 A 
ATOM     33  C6  <0> d   1       1.246  -0.310   3.455  0.00  0.00     0.014 A 
BRANCH  31  34
ATOM     34  O1  <0> d   1      -1.175   0.863   1.013  0.00  0.00    -0.356 OA
ATOM     35  C1  <0> d   1      -2.459   1.492   1.045  0.00  0.00     0.210 C 
ENDBRANCH  31  34
ENDBRANCH   1  28
TORSDOF 6
