REMARK  3 active torsions:
REMARK  status: ('A' for Active; 'I' for Inactive)
REMARK    1  A    between atoms: N1_2  and  C3_4 
REMARK    2  A    between atoms: C3_4  and  C4_5 
REMARK    3  A    between atoms: C11_13  and  C13_16 
ROOT
ATOM      1  C4  <0> d   1       2.479   3.702  -0.001  0.00  0.00     0.039 A 
ATOM      2  C5  <0> d   1       2.554   5.085   0.007  0.00  0.00     0.118 A 
ATOM      3  C6  <0> d   1       1.396   5.858   0.022  0.00  0.00     0.041 A 
ATOM      4  C7  <0> d   1       0.168   5.260   0.030  0.00  0.00     0.021 A 
ATOM      5  C8  <0> d   1       0.075   3.868   0.022  0.00  0.00     0.050 A 
ATOM      6  C9  <0> d   1       1.238   3.078   0.007  0.00  0.00     0.100 A 
ATOM      7  O1  <0> d   1       1.148   1.733   0.000  0.00  0.00    -0.320 OA
ATOM      8  C10 <0> d   1      -0.013   1.076   0.008  0.00  0.00     0.161 A 
ATOM      9  C11 <0> d   1      -1.216   1.714   0.017  0.00  0.00     0.073 A 
ATOM     10  C12 <0> d   1      -1.233   3.189   0.030  0.00  0.00     0.199 A 
ATOM     11  O2  <0> d   1      -2.278   3.815   0.044  0.00  0.00    -0.286 OA
ATOM     12  O3  <0> d   1       3.768   5.692  -0.001  0.00  0.00    -0.191 OA
ENDROOT
BRANCH   9  13
ATOM     13  C13 <0> d   1      -2.476   0.946   0.019  0.00  0.00     0.115 A 
ATOM     14  S1  <0> d   1      -4.158   1.551   0.038  0.00  0.00    -0.067 SA
ATOM     15  C19 <0> d   1      -4.964  -0.032   0.025  0.00  0.00     0.035 A 
ATOM     16  C14 <0> d   1      -3.869  -0.928   0.014  0.00  0.00     0.075 A 
ATOM     17  C18 <0> d   1      -6.269  -0.459   0.029  0.00  0.00     0.021 A 
ATOM     18  N2  <0> d   1      -2.647  -0.359   0.012  0.00  0.00    -0.239 NA
ATOM     19  C15 <0> d   1      -4.191  -2.306   0.008  0.00  0.00     0.033 A 
ATOM     20  C16 <0> d   1      -5.487  -2.719   0.013  0.00  0.00     0.002 A 
ATOM     21  C17 <0> d   1      -6.540  -1.815   0.023  0.00  0.00     0.002 A 
ENDBRANCH   9  13
BRANCH   1  22
ATOM     22  C3  <0> d   1       3.739   2.876  -0.017  0.00  0.00     0.278 C 
BRANCH  22  23
ATOM     23  N1  <0> d   1       4.136   2.615  -1.407  0.00  0.00    -0.075 N 
ATOM     24  C1  <0> d   1       4.524   3.859  -2.086  0.00  0.00     0.269 C 
ATOM     25  C2  <0> d   1       5.217   1.623  -1.468  0.00  0.00     0.269 C 
ATOM     26  H16 <0> d   1       3.265   2.200  -1.935  0.00  0.00     0.279 HD
ENDBRANCH  22  23
ENDBRANCH   1  22
TORSDOF 3
