REMARK  5 active torsions:
REMARK  status: ('A' for Active; 'I' for Inactive)
REMARK    1  A    between atoms: N2_5  and  C6_8 
REMARK    2  A    between atoms: C6_8  and  C7_9 
REMARK    3  A    between atoms: C8_10  and  O4_28 
REMARK    4  A    between atoms: C14_17  and  C15_18 
REMARK    5  A    between atoms: C20_23  and  O2_24 
ROOT
ATOM      1  C7  <0> d   1       2.328  -3.662   1.462  0.00  0.00     0.036 A 
ATOM      2  C8  <0> d   1       3.704  -3.773   1.336  0.00  0.00     0.076 A 
ATOM      3  C9  <0> d   1       4.461  -4.370   2.340  0.00  0.00     0.038 A 
ATOM      4  C10 <0> d   1       3.852  -4.853   3.463  0.00  0.00     0.021 A 
ATOM      5  C11 <0> d   1       2.468  -4.748   3.604  0.00  0.00     0.051 A 
ATOM      6  C12 <0> d   1       1.694  -4.144   2.600  0.00  0.00     0.101 A 
ATOM      7  O1  <0> d   1       0.393  -4.153   2.961  0.00  0.00    -0.305 OA
ATOM      8  C13 <0> d   1       0.210  -4.729   4.172  0.00  0.00     0.128 A 
ATOM      9  C14 <0> d   1      -0.976  -4.892   4.813  0.00  0.00     0.055 C 
ATOM     10  C22 <0> d   1       1.528  -5.159   4.662  0.00  0.00     0.218 A 
ATOM     11  O3  <0> d   1       1.786  -5.717   5.715  0.00  0.00    -0.284 OA
ENDROOT
BRANCH   1  12
ATOM     12  C6  <0> d   1       1.521  -3.014   0.366  0.00  0.00     0.279 C 
BRANCH  12  13
ATOM     13  N2  <0> d   1       1.420  -1.571   0.622  0.00  0.00    -0.064 N 
ATOM     14  C3  <0> d   1       0.737  -0.921  -0.505  0.00  0.00     0.265 C 
ATOM     15  C2  <0> d   1       0.648   0.585  -0.248  0.00  0.00     0.299 C 
ATOM     16  N1  <0> d   1      -0.092   0.823   0.999  0.00  0.00     0.087 N 
ATOM     17  C1  <0> d   1      -0.248   2.262   1.251  0.00  0.00     0.310 C 
ATOM     18  C5  <0> d   1       0.566   0.158   2.132  0.00  0.00     0.299 C 
ATOM     19  C4  <0> d   1       0.656  -1.344   1.856  0.00  0.00     0.265 C 
ATOM     20  H25 <0> d   1       2.345  -1.182   0.723  0.00  0.00     0.280 HD
ENDBRANCH  12  13
ENDBRANCH   1  12
BRANCH   2  21
ATOM     21  O4  <0> d   1       4.318  -3.296   0.223  0.00  0.00    -0.360 OA
ATOM     22  H24 <0> d   1       4.595  -2.372   0.293  0.00  0.00     0.217 HD
ENDBRANCH   2  21
BRANCH   9  23
ATOM     23  C15 <0> d   1      -2.201  -4.317   4.245  0.00  0.00    -0.000 A 
ATOM     24  C20 <0> d   1      -3.347  -4.164   5.044  0.00  0.00     0.078 A 
ATOM     25  C19 <0> d   1      -4.496  -3.615   4.498  0.00  0.00     0.037 A 
ATOM     26  C18 <0> d   1      -4.517  -3.230   3.171  0.00  0.00     0.003 A 
ATOM     27  C17 <0> d   1      -3.392  -3.384   2.377  0.00  0.00     0.001 A 
ATOM     28  C16 <0> d   1      -2.238  -3.922   2.902  0.00  0.00     0.014 A 
BRANCH  24  29
ATOM     29  O2  <0> d   1      -3.327  -4.548   6.346  0.00  0.00    -0.355 OA
ATOM     30  C21 <0> d   1      -4.529  -4.362   7.095  0.00  0.00     0.210 C 
ENDBRANCH  24  29
ENDBRANCH   9  23
TORSDOF 5
