REMARK  2 active torsions:
REMARK  status: ('A' for Active; 'I' for Inactive)
REMARK    1  A    between atoms: C8_8  and  C11_13 
REMARK    2  A    between atoms: C11_13  and  N1_14 
ROOT
ATOM      1  C1  <0> d   1      -2.779   5.164  -0.046  0.00  0.00     0.048 C 
ATOM      2  C2  <0> d   1      -1.597   4.231   0.006  0.00  0.00    -0.060 A 
ATOM      3  C3  <0> d   1      -1.803   2.859   0.046  0.00  0.00     0.016 A 
ATOM      4  C4  <0> d   1      -0.736   1.988   0.100  0.00  0.00    -0.027 A 
ATOM      5  C5  <0> d   1       0.562   2.485   0.103  0.00  0.00     0.096 A 
ATOM      6  C6  <0> d   1       0.767   3.874   0.056  0.00  0.00     0.007 A 
ATOM      7  C7  <0> d   1      -0.329   4.741   0.007  0.00  0.00     0.021 A 
ATOM      8  C8  <0> d   1       2.139   4.391   0.060  0.00  0.00    -0.011 A 
ATOM      9  C9  <0> d   1       3.160   3.498   0.110  0.00  0.00     0.092 A 
ATOM     10  C10 <0> d   1       2.880   2.115   0.155  0.00  0.00     0.288 A 
ATOM     11  O1  <0> d   1       3.805   1.323   0.199  0.00  0.00    -0.260 OA
ATOM     12  O2  <0> d   1       1.621   1.650   0.151  0.00  0.00    -0.274 OA
ATOM     13  C17 <0> d   1      -0.975   0.501   0.149  0.00  0.00     0.051 C 
ENDROOT
BRANCH   8  14
ATOM     14  C11 <0> d   1       2.409   5.873   0.011  0.00  0.00     0.312 C 
BRANCH  14  15
ATOM     15  N1  <0> d   1       2.160   6.371  -1.348  0.00  0.00     0.096 N 
ATOM     16  C15 <0> d   1       2.045   7.836  -1.359  0.00  0.00     0.303 C 
ATOM     17  C14 <0> d   1       1.708   8.307  -2.776  0.00  0.00     0.302 C 
ATOM     18  N2  <0> d   1       2.757   7.858  -3.702  0.00  0.00     0.087 N 
ATOM     19  C13 <0> d   1       2.872   6.393  -3.691  0.00  0.00     0.302 C 
ATOM     20  C16 <0> d   1       2.508   8.356  -5.061  0.00  0.00     0.310 C 
ATOM     21  C12 <0> d   1       3.209   5.921  -2.274  0.00  0.00     0.303 C 
ENDBRANCH  14  15
ENDBRANCH   8  14
TORSDOF 2
