REMARK  4 active torsions:
REMARK  status: ('A' for Active; 'I' for Inactive)
REMARK    1  A    between atoms: C2_2  and  N1_3 
REMARK    2  A    between atoms: N2_6  and  C7_9 
REMARK    3  A    between atoms: C7_9  and  C8_10 
REMARK    4  A    between atoms: C15_18  and  C16_19 
ROOT
ATOM      1  C8  <0> d   1       2.502   3.561   1.584  0.00  0.00     0.041 A 
ATOM      2  C9  <0> d   1       2.274   4.459   0.553  0.00  0.00     0.118 A 
ATOM      3  C10 <0> d   1       2.285   5.830   0.792  0.00  0.00     0.041 A 
ATOM      4  C11 <0> d   1       2.534   6.306   2.049  0.00  0.00     0.021 A 
ATOM      5  C12 <0> d   1       2.771   5.414   3.095  0.00  0.00     0.051 A 
ATOM      6  C13 <0> d   1       2.756   4.028   2.868  0.00  0.00     0.101 A 
ATOM      7  O1  <0> d   1       3.010   3.374   4.022  0.00  0.00    -0.305 OA
ATOM      8  C14 <0> d   1       3.204   4.229   5.053  0.00  0.00     0.128 A 
ATOM      9  C15 <0> d   1       3.477   3.887   6.337  0.00  0.00     0.054 C 
ATOM     10  C22 <0> d   1       3.063   5.596   4.529  0.00  0.00     0.218 A 
ATOM     11  O2  <0> d   1       3.165   6.645   5.142  0.00  0.00    -0.284 OA
ATOM     12  O3  <0> d   1       2.032   3.996  -0.700  0.00  0.00    -0.191 OA
ENDROOT
BRANCH   1  13
ATOM     13  C7  <0> d   1       2.480   2.079   1.312  0.00  0.00     0.317 C 
BRANCH  13  14
ATOM     14  N2  <0> d   1       1.117   1.566   1.503  0.00  0.00     0.096 N 
ATOM     15  C4  <0> d   1       0.201   2.117   0.495  0.00  0.00     0.300 C 
ATOM     16  C3  <0> d   1      -1.220   1.622   0.777  0.00  0.00     0.265 C 
ATOM     17  N1  <0> d   1      -1.238   0.153   0.754  0.00  0.00    -0.068 N 
ATOM     18  C6  <0> d   1      -0.321  -0.398   1.762  0.00  0.00     0.265 C 
ATOM     19  H23 <0> d   1      -0.890  -0.176  -0.237  0.00  0.00     0.280 HD
ATOM     20  C5  <0> d   1       1.099   0.097   1.480  0.00  0.00     0.300 C 
BRANCH  17  21
ATOM     21  C2  <0> d   1      -2.601  -0.360   0.945  0.00  0.00     0.230 C 
ATOM     22  C1  <0> d   1      -2.623  -1.865   0.669  0.00  0.00     0.034 C 
ENDBRANCH  17  21
ENDBRANCH  13  14
ENDBRANCH   1  13
BRANCH   9  23
ATOM     23  C16 <0> d   1       3.435   2.477   6.747  0.00  0.00    -0.012 A 
ATOM     24  C21 <0> d   1       3.366   2.139   8.104  0.00  0.00     0.044 A 
ATOM     25  C20 <0> d   1       3.321   0.811   8.479  0.00  0.00     0.024 A 
ATOM     26 Cl1  <0> d   1       3.330   3.387   9.311  0.00  0.00    -0.083 Cl
ATOM     27  C19 <0> d   1       3.355  -0.184   7.519  0.00  0.00     0.002 A 
ATOM     28  C18 <0> d   1       3.429   0.142   6.175  0.00  0.00     0.001 A 
ATOM     29  C17 <0> d   1       3.469   1.462   5.783  0.00  0.00     0.013 A 
ENDBRANCH   9  23
TORSDOF 4
