REMARK  7 active torsions:
REMARK  status: ('A' for Active; 'I' for Inactive)
REMARK    1  A    between atoms: C3_3  and  N3_29 
REMARK    2  A    between atoms: C6_6  and  C7_7 
REMARK    3  A    between atoms: C7_7  and  O1_8 
REMARK    4  A    between atoms: O1_8  and  C8_9 
REMARK    5  A    between atoms: C11_12  and  C14_16 
REMARK    6  A    between atoms: C12_13  and  O2_15 
REMARK    7  A    between atoms: C15_17  and  C17_22 
ROOT
ATOM      1  C8  <0> d   1      -3.310  -1.292  -0.798  0.00  0.00     0.071 A 
ATOM      2  C9  <0> d   1      -4.029  -1.959   0.186  0.00  0.00     0.038 A 
ATOM      3  C10 <0> d   1      -5.096  -2.762  -0.160  0.00  0.00     0.019 A 
ATOM      4  C11 <0> d   1      -5.455  -2.905  -1.499  0.00  0.00     0.029 A 
ATOM      5  C12 <0> d   1      -4.730  -2.233  -2.489  0.00  0.00     0.081 A 
ATOM      6  C13 <0> d   1      -3.664  -1.425  -2.132  0.00  0.00     0.074 A 
ENDROOT
BRANCH   4   7
ATOM      7  C14 <0> d   1      -6.601  -3.768  -1.873  0.00  0.00     0.102 A 
ATOM      8  N2  <0> d   1      -7.574  -3.449  -2.699  0.00  0.00    -0.174 NA
ATOM      9  N1  <0> d   1      -8.454  -4.534  -2.786  0.00  0.00    -0.288 N 
ATOM     10  C16 <0> d   1      -7.997  -5.519  -1.985  0.00  0.00     0.124 A 
ATOM     11  H1  <0> d   1      -9.258  -4.569  -3.326  0.00  0.00     0.188 HD
ATOM     12  C15 <0> d   1      -6.847  -5.082  -1.400  0.00  0.00     0.022 A 
BRANCH  12  13
ATOM     13  C17 <0> d   1      -6.006  -5.842  -0.443  0.00  0.00    -0.022 A 
ATOM     14  C22 <0> d   1      -6.567  -6.362   0.722  0.00  0.00     0.014 A 
ATOM     15  C21 <0> d   1      -5.782  -7.073   1.605  0.00  0.00     0.024 A 
ATOM     16  C20 <0> d   1      -4.435  -7.261   1.342  0.00  0.00     0.034 A 
ATOM     17  C19 <0> d   1      -3.872  -6.741   0.190  0.00  0.00     0.024 A 
ATOM     18 Cl1  <0> d   1      -3.451  -8.150   2.462  0.00  0.00    -0.084 Cl
ATOM     19  C18 <0> d   1      -4.650  -6.033  -0.703  0.00  0.00     0.014 A 
ENDBRANCH  12  13
ENDBRANCH   4   7
BRANCH   5  20
ATOM     20  O2  <0> d   1      -5.074  -2.369  -3.796  0.00  0.00    -0.360 OA
ATOM     21  H11 <0> d   1      -5.718  -1.717  -4.103  0.00  0.00     0.217 HD
ENDBRANCH   5  20
BRANCH   1  22
ATOM     22  O1  <0> d   1      -2.260  -0.503  -0.451  0.00  0.00    -0.347 OA
BRANCH  22  23
ATOM     23  C7  <0> d   1      -1.949  -0.411   0.941  0.00  0.00     0.214 C 
BRANCH  23  24
ATOM     24  C6  <0> d   1      -0.765   0.501   1.132  0.00  0.00    -0.034 A 
ATOM     25  C1  <0> d   1      -0.960   1.856   1.322  0.00  0.00     0.012 A 
ATOM     26  C2  <0> d   1       0.127   2.693   1.498  0.00  0.00     0.037 A 
ATOM     27  C3  <0> d   1       1.408   2.174   1.483  0.00  0.00     0.102 A 
ATOM     28  C4  <0> d   1       1.603   0.819   1.293  0.00  0.00     0.037 A 
ATOM     29  C5  <0> d   1       0.517  -0.018   1.119  0.00  0.00     0.012 A 
BRANCH  27  30
ATOM     30  N3  <0> d   1       2.571   3.070   1.669  0.00  0.00    -0.116 N 
ATOM     31  O3  <0> d   1       2.401   4.256   1.835  0.00  0.00    -0.532 OA
ATOM     32  O4  <0> d   1       3.692   2.617   1.656  0.00  0.00    -0.532 OA
ENDBRANCH  27  30
ENDBRANCH  23  24
ENDBRANCH  22  23
ENDBRANCH   1  22
TORSDOF 7
