REMARK  4 active torsions:
REMARK  status: ('A' for Active; 'I' for Inactive)
REMARK    1  A    between atoms: C8_9  and  C11_14 
REMARK    2  A    between atoms: C11_14  and  N1_15 
REMARK    3  A    between atoms: N2_18  and  C16_21 
REMARK    4  A    between atoms: C16_21  and  C17_22 
ROOT
ATOM      1  C11 <0> d   1       0.077  -5.037   1.252  0.00  0.00     0.312 C 
ENDROOT
BRANCH   1   2
ATOM      2  C8  <0> d   1       0.059  -4.239  -0.026  0.00  0.00    -0.011 A 
ATOM      3  C5  <0> d   1       0.040  -2.773   0.001  0.00  0.00     0.008 A 
ATOM      4  C4  <0> d   1       0.024  -2.068  -1.215  0.00  0.00     0.090 A 
ATOM      5  C6  <0> d   1       0.035  -2.075   1.213  0.00  0.00     0.039 A 
ATOM      6  C3  <0> d   1       0.006  -0.680  -1.200  0.00  0.00     0.046 A 
ATOM      7  O2  <0> d   1       0.028  -2.745  -2.384  0.00  0.00    -0.275 OA
ATOM      8  C2  <0> d   1       0.002  -0.004   0.002  0.00  0.00    -0.038 A 
ATOM      9  C1  <0> d   1      -0.018   1.503   0.010  0.00  0.00     0.050 C 
ATOM     10  C7  <0> d   1       0.023  -0.698   1.204  0.00  0.00     0.041 A 
ATOM     11 Cl1  <0> d   1       0.025   0.175   2.705  0.00  0.00    -0.084 Cl
ATOM     12  C10 <0> d   1       0.046  -4.087  -2.417  0.00  0.00     0.288 A 
ATOM     13  C9  <0> d   1       0.062  -4.857  -1.234  0.00  0.00     0.092 A 
ATOM     14  O1  <0> d   1       0.048  -4.654  -3.494  0.00  0.00    -0.260 OA
ENDBRANCH   1   2
BRANCH   1  15
ATOM     15  N1  <0> d   1       1.461  -5.175   1.724  0.00  0.00     0.096 N 
ATOM     16  C15 <0> d   1       1.501  -5.738   3.081  0.00  0.00     0.303 C 
ATOM     17  C14 <0> d   1       2.951  -5.791   3.566  0.00  0.00     0.303 C 
ATOM     18  N2  <0> d   1       3.746  -6.607   2.637  0.00  0.00     0.096 N 
ATOM     19  C13 <0> d   1       3.706  -6.045   1.280  0.00  0.00     0.303 C 
ATOM     20  C12 <0> d   1       2.255  -5.992   0.795  0.00  0.00     0.303 C 
BRANCH  18  21
ATOM     21  C16 <0> d   1       5.130  -6.746   3.110  0.00  0.00     0.311 C 
BRANCH  21  22
ATOM     22  C17 <0> d   1       5.147  -7.544   4.388  0.00  0.00    -0.030 A 
ATOM     23  C22 <0> d   1       5.270  -8.920   4.342  0.00  0.00     0.009 A 
ATOM     24  C21 <0> d   1       5.290  -9.652   5.515  0.00  0.00     0.001 A 
ATOM     25  C20 <0> d   1       5.179  -9.008   6.733  0.00  0.00     0.000 A 
ATOM     26  C19 <0> d   1       5.051  -7.632   6.779  0.00  0.00     0.001 A 
ATOM     27  C18 <0> d   1       5.035  -6.900   5.606  0.00  0.00     0.009 A 
ENDBRANCH  21  22
ENDBRANCH  18  21
ENDBRANCH   1  15
TORSDOF 4
