REMARK  3 active torsions:
REMARK  status: ('A' for Active; 'I' for Inactive)
REMARK    1  A    between atoms: C8_8  and  C11_13 
REMARK    2  A    between atoms: C11_13  and  N1_14 
REMARK    3  A    between atoms: N2_17  and  C16_20 
ROOT
ATOM      1  N1  <0> d   1       1.382  -1.644   4.201  0.00  0.00    -0.064 N 
ATOM      2  C12 <0> d   1       1.992  -2.942   4.516  0.00  0.00     0.255 C 
ATOM      3  C13 <0> d   1       3.501  -2.760   4.715  0.00  0.00     0.152 C 
ATOM      4  N2  <0> d   1       3.715  -1.724   5.737  0.00  0.00    -0.363 N 
ATOM      5  C14 <0> d   1       3.007  -0.443   5.585  0.00  0.00     0.152 C 
ATOM      6  C15 <0> d   1       1.522  -0.734   5.344  0.00  0.00     0.255 C 
ATOM      7  H22 <0> d   1       1.842  -1.245   3.396  0.00  0.00     0.280 HD
ENDROOT
BRANCH   1   8
ATOM      8  C11 <0> d   1      -0.044  -1.835   3.902  0.00  0.00     0.274 C 
BRANCH   8   9
ATOM      9  C8  <0> d   1      -0.188  -2.670   2.655  0.00  0.00    -0.014 A 
ATOM     10  C6  <0> d   1      -0.145  -2.051   1.326  0.00  0.00     0.006 A 
ATOM     11  C5  <0> d   1      -0.283  -2.868   0.190  0.00  0.00     0.090 A 
ATOM     12  C7  <0> d   1       0.036  -0.673   1.177  0.00  0.00     0.021 A 
ATOM     13  C4  <0> d   1      -0.243  -2.290  -1.073  0.00  0.00     0.039 A 
ATOM     14  O2  <0> d   1      -0.453  -4.199   0.335  0.00  0.00    -0.275 OA
ATOM     15  C3  <0> d   1      -0.069  -0.927  -1.198  0.00  0.00     0.009 A 
ATOM     16  C2  <0> d   1       0.067  -0.125  -0.074  0.00  0.00    -0.061 A 
ATOM     17  C1  <0> d   1       0.257   1.361  -0.235  0.00  0.00     0.048 C 
ATOM     18  C10 <0> d   1      -0.494  -4.772   1.548  0.00  0.00     0.288 A 
ATOM     19  C9  <0> d   1      -0.361  -4.013   2.731  0.00  0.00     0.092 A 
ATOM     20  O1  <0> d   1      -0.649  -5.977   1.630  0.00  0.00    -0.260 OA
ENDBRANCH   8   9
ENDBRANCH   1   8
BRANCH   4  21
ATOM     21  C16 <0> d   1       4.561  -1.948   6.817  0.00  0.00     0.125 A 
ATOM     22  N3  <0> d   1       4.583  -1.089   7.823  0.00  0.00    -0.244 NA
ATOM     23  C20 <0> d   1       5.368  -1.268   8.869  0.00  0.00     0.119 A 
ATOM     24  C19 <0> d   1       6.208  -2.360   8.945  0.00  0.00     0.019 A 
ATOM     25  C18 <0> d   1       6.220  -3.283   7.907  0.00  0.00     0.005 A 
ATOM     26  C17 <0> d   1       5.382  -3.072   6.827  0.00  0.00     0.050 A 
ENDBRANCH   4  21
TORSDOF 3
