REMARK  8 active torsions:
REMARK  status: ('A' for Active; 'I' for Inactive)
REMARK    1  A    between atoms: O1_2  and  C2_3 
REMARK    2  A    between atoms: C5_6  and  C8_9 
REMARK    3  A    between atoms: C14_16  and  C18_24 
REMARK    4  A    between atoms: C16_19  and  C17_20 
REMARK    5  A    between atoms: C18_24  and  N1_25 
REMARK    6  A    between atoms: N1_25  and  C19_26 
REMARK    7  A    between atoms: C19_26  and  C20_27 
REMARK    8  A    between atoms: C20_27  and  O4_28 
ROOT
ATOM      1  C8  <0> d   1      -1.791  -3.863  -3.653  0.00  0.00     0.064 A 
ATOM      2  C9  <0> d   1      -1.787  -4.766  -2.489  0.00  0.00     0.198 A 
ATOM      3  O2  <0> d   1      -2.240  -5.896  -2.556  0.00  0.00    -0.286 OA
ATOM      4  C10 <0> d   1      -1.210  -4.237  -1.240  0.00  0.00     0.050 A 
ATOM      5  C11 <0> d   1      -1.159  -5.012  -0.081  0.00  0.00     0.021 A 
ATOM      6  C12 <0> d   1      -0.618  -4.491   1.059  0.00  0.00     0.041 A 
ATOM      7  C13 <0> d   1      -0.118  -3.190   1.070  0.00  0.00     0.118 A 
ATOM      8  C14 <0> d   1      -0.162  -2.409  -0.072  0.00  0.00     0.039 A 
ATOM      9  C15 <0> d   1      -0.714  -2.921  -1.239  0.00  0.00     0.101 A 
ATOM     10  O3  <0> d   1      -0.759  -2.176  -2.361  0.00  0.00    -0.303 OA
ATOM     11  C16 <0> d   1      -1.272  -2.616  -3.513  0.00  0.00     0.174 A 
ATOM     12  O5  <0> d   1       0.417  -2.685   2.211  0.00  0.00    -0.191 OA
ENDROOT
BRANCH   1  13
ATOM     13  C5  <0> d   1      -2.351  -4.307  -4.953  0.00  0.00    -0.019 A 
ATOM     14  C4  <0> d   1      -1.683  -5.269  -5.709  0.00  0.00     0.015 A 
ATOM     15  C3  <0> d   1      -2.207  -5.680  -6.917  0.00  0.00     0.037 A 
ATOM     16  C2  <0> d   1      -3.398  -5.138  -7.379  0.00  0.00     0.068 A 
ATOM     17  C7  <0> d   1      -4.066  -4.180  -6.628  0.00  0.00     0.037 A 
ATOM     18  C6  <0> d   1      -3.550  -3.768  -5.417  0.00  0.00     0.015 A 
BRANCH  16  19
ATOM     19  O1  <0> d   1      -3.912  -5.545  -8.569  0.00  0.00    -0.356 OA
ATOM     20  C1  <0> d   1      -5.141  -4.946  -8.985  0.00  0.00     0.210 C 
ENDBRANCH  16  19
ENDBRANCH   1  13
BRANCH  11  21
ATOM     21  C17 <0> d   1      -1.276  -1.692  -4.703  0.00  0.00     0.440 C 
ATOM     22  F1  <0> d   1      -2.593  -1.331  -5.009  0.00  0.00    -0.164 F 
ATOM     23  F2  <0> d   1      -0.536  -0.543  -4.404  0.00  0.00    -0.164 F 
ATOM     24  F3  <0> d   1      -0.704  -2.343  -5.801  0.00  0.00    -0.164 F 
ENDBRANCH  11  21
BRANCH   8  25
ATOM     25  C18 <0> d   1       0.381  -1.003  -0.047  0.00  0.00     0.276 C 
BRANCH  25  26
ATOM     26  N1  <0> d   1       1.804  -1.022  -0.412  0.00  0.00    -0.069 N 
ATOM     27  H12 <0> d   1       2.359  -1.642   0.307  0.00  0.00     0.277 HD
ATOM     28  H18 <0> d   1       1.918  -1.441  -1.423  0.00  0.00     0.277 HD
BRANCH  26  29
ATOM     29  C19 <0> d   1       2.369   0.334  -0.398  0.00  0.00     0.258 C 
BRANCH  29  30
ATOM     30  C20 <0> d   1       3.849   0.274  -0.783  0.00  0.00     0.191 C 
BRANCH  30  31
ATOM     31  O4  <0> d   1       3.972  -0.173  -2.134  0.00  0.00    -0.399 OA
ATOM     32  H17 <0> d   1       4.967  -0.279  -2.590  0.00  0.00     0.209 HD
ENDBRANCH  30  31
ENDBRANCH  29  30
ENDBRANCH  26  29
ENDBRANCH  25  26
ENDBRANCH   8  25
TORSDOF 8
