REMARK  6 active torsions:
REMARK  status: ('A' for Active; 'I' for Inactive)
REMARK    1  A    between atoms: O1_2  and  C2_3 
REMARK    2  A    between atoms: C5_6  and  C8_9 
REMARK    3  A    between atoms: C9_10  and  C12_19 
REMARK    4  A    between atoms: C10_14  and  C11_15 
REMARK    5  A    between atoms: C15_22  and  O3_26 
REMARK    6  A    between atoms: C17_24  and  O2_25 
ROOT
ATOM      1  C8  <0> d   1      -4.988  -2.578   0.066  0.00  0.00     0.039 A 
ATOM      2  C9  <0> d   1      -5.434  -3.514   1.032  0.00  0.00     0.103 A 
ATOM      3  N1  <0> d   1      -6.615  -3.951   0.654  0.00  0.00    -0.173 NA
ATOM      4  N2  <0> d   1      -6.957  -3.320  -0.547  0.00  0.00    -0.272 N 
ATOM      5  H1  <0> d   1      -7.776  -3.458  -1.048  0.00  0.00     0.189 HD
ATOM      6  C10 <0> d   1      -5.956  -2.482  -0.889  0.00  0.00     0.147 A 
ENDROOT
BRANCH   2   7
ATOM      7  C12 <0> d   1      -4.699  -3.925   2.253  0.00  0.00     0.029 A 
ATOM      8  C17 <0> d   1      -4.581  -5.281   2.576  0.00  0.00     0.081 A 
ATOM      9  C16 <0> d   1      -3.888  -5.660   3.713  0.00  0.00     0.074 A 
ATOM     10  C15 <0> d   1      -3.325  -4.695   4.535  0.00  0.00     0.068 A 
ATOM     11  C14 <0> d   1      -3.447  -3.349   4.219  0.00  0.00     0.037 A 
ATOM     12  C13 <0> d   1      -4.130  -2.963   3.084  0.00  0.00     0.019 A 
BRANCH   8  13
ATOM     13  O2  <0> d   1      -5.138  -6.224   1.772  0.00  0.00    -0.360 OA
ATOM     14  H12 <0> d   1      -4.550  -6.543   1.073  0.00  0.00     0.217 HD
ENDBRANCH   8  13
BRANCH  10  15
ATOM     15  O3  <0> d   1      -2.650  -5.069   5.654  0.00  0.00    -0.361 OA
ATOM     16  H13 <0> d   1      -3.204  -5.136   6.444  0.00  0.00     0.217 HD
ENDBRANCH  10  15
ENDBRANCH   2   7
BRANCH   1  17
ATOM     17  C5  <0> d   1      -3.704  -1.833   0.091  0.00  0.00    -0.021 A 
ATOM     18  C4  <0> d   1      -3.701  -0.453   0.285  0.00  0.00     0.015 A 
ATOM     19  C3  <0> d   1      -2.506   0.236   0.308  0.00  0.00     0.037 A 
ATOM     20  C2  <0> d   1      -1.308  -0.444   0.140  0.00  0.00     0.068 A 
ATOM     21  C7  <0> d   1      -1.308  -1.818  -0.058  0.00  0.00     0.037 A 
ATOM     22  C6  <0> d   1      -2.500  -2.513  -0.078  0.00  0.00     0.015 A 
BRANCH  20  23
ATOM     23  O1  <0> d   1      -0.133   0.237   0.165  0.00  0.00    -0.356 OA
ATOM     24  C1  <0> d   1      -0.205   1.649   0.373  0.00  0.00     0.210 C 
ENDBRANCH  20  23
ENDBRANCH   1  17
BRANCH   6  25
ATOM     25  C11 <0> d   1      -5.914  -1.600  -2.110  0.00  0.00     0.434 C 
ATOM     26  F1  <0> d   1      -7.087  -1.775  -2.852  0.00  0.00    -0.165 F 
ATOM     27  F2  <0> d   1      -5.808  -0.262  -1.715  0.00  0.00    -0.165 F 
ATOM     28  F3  <0> d   1      -4.809  -1.943  -2.896  0.00  0.00    -0.165 F 
ENDBRANCH   6  25
TORSDOF 6
