REMARK  4 active torsions:
REMARK  status: ('A' for Active; 'I' for Inactive)
REMARK    1  A    between atoms: N1_2  and  C3_4 
REMARK    2  A    between atoms: C3_4  and  C4_5 
REMARK    3  A    between atoms: C11_13  and  C12_14 
REMARK    4  A    between atoms: C13_15  and  C14_16 
ROOT
ATOM      1  C4  <0> d   1      -1.359  -2.014  -0.120  0.00  0.00     0.039 A 
ATOM      2  C5  <0> d   1      -1.393  -2.599  -1.375  0.00  0.00     0.118 A 
ATOM      3  C6  <0> d   1      -1.377  -3.984  -1.511  0.00  0.00     0.041 A 
ATOM      4  C7  <0> d   1      -1.327  -4.782  -0.403  0.00  0.00     0.021 A 
ATOM      5  C8  <0> d   1      -1.293  -4.207   0.868  0.00  0.00     0.051 A 
ATOM      6  C9  <0> d   1      -1.303  -2.810   1.017  0.00  0.00     0.101 A 
ATOM      7  O1  <0> d   1      -1.257  -2.494   2.329  0.00  0.00    -0.305 OA
ATOM      8  C10 <0> d   1      -1.210  -3.597   3.112  0.00  0.00     0.127 A 
ATOM      9  C11 <0> d   1      -1.157  -3.616   4.475  0.00  0.00     0.041 C 
ATOM     10  C20 <0> d   1      -1.239  -4.769   2.229  0.00  0.00     0.218 A 
ATOM     11  O2  <0> d   1      -1.212  -5.946   2.550  0.00  0.00    -0.284 OA
ATOM     12  O3  <0> d   1      -1.442  -1.815  -2.482  0.00  0.00    -0.191 OA
ENDROOT
BRANCH   9  13
ATOM     13  C12 <0> d   1      -1.147  -2.406   5.197  0.00  0.00     0.004 C 
ATOM     14  C13 <0> d   1      -1.095  -2.425   6.550  0.00  0.00     0.011 C 
BRANCH  14  15
ATOM     15  C14 <0> d   1      -1.084  -1.163   7.303  0.00  0.00    -0.036 A 
ATOM     16  C19 <0> d   1      -1.030  -1.178   8.701  0.00  0.00     0.011 A 
ATOM     17  C18 <0> d   1      -1.014   0.011   9.399  0.00  0.00     0.001 A 
ATOM     18  C17 <0> d   1      -1.064   1.216   8.722  0.00  0.00     0.000 A 
ATOM     19  C16 <0> d   1      -1.125   1.240   7.339  0.00  0.00     0.001 A 
ATOM     20  C15 <0> d   1      -1.135   0.061   6.625  0.00  0.00     0.011 A 
ENDBRANCH  14  15
ENDBRANCH   9  13
BRANCH   1  21
ATOM     21  C3  <0> d   1      -1.376  -0.512   0.012  0.00  0.00     0.278 C 
BRANCH  21  22
ATOM     22  N1  <0> d   1       0.002  -0.004   0.002  0.00  0.00    -0.075 N 
ATOM     23  C1  <0> d   1      -0.018   1.465   0.010  0.00  0.00     0.269 C 
ATOM     24  C2  <0> d   1       0.713  -0.491   1.192  0.00  0.00     0.269 C 
ATOM     25  H19 <0> d   1       0.474  -0.330  -0.828  0.00  0.00     0.279 HD
ENDBRANCH  21  22
ENDBRANCH   1  21
TORSDOF 4
