REMARK  7 active torsions:
REMARK  status: ('A' for Active; 'I' for Inactive)
REMARK    1  A    between atoms: O1_2  and  C2_3 
REMARK    2  A    between atoms: C7_8  and  C8_9 
REMARK    3  A    between atoms: C10_14  and  C11_15 
REMARK    4  A    between atoms: C14_18  and  O3_22 
REMARK    5  A    between atoms: O3_22  and  C17_23 
REMARK    6  A    between atoms: C17_23  and  C18_24 
REMARK       I    between atoms: C18_24  and  N3_26 
REMARK    7  A    between atoms: N3_26  and  N4_27 
ROOT
ATOM      1  C11 <0> d   1      -2.380  -2.007  -0.244  0.00  0.00     0.032 A 
ATOM      2  C12 <0> d   1      -2.563  -1.974  -1.625  0.00  0.00     0.019 A 
ATOM      3  C13 <0> d   1      -3.571  -1.205  -2.169  0.00  0.00     0.038 A 
ATOM      4  C14 <0> d   1      -4.405  -0.463  -1.344  0.00  0.00     0.072 A 
ATOM      5  C15 <0> d   1      -4.230  -0.490   0.032  0.00  0.00     0.077 A 
ATOM      6  C16 <0> d   1      -3.224  -1.263   0.587  0.00  0.00     0.122 A 
ATOM      7  O2  <0> d   1      -3.055  -1.295   1.934  0.00  0.00    -0.191 OA
ENDROOT
BRANCH   1   8
ATOM      8  C10 <0> d   1      -1.298  -2.832   0.343  0.00  0.00     0.102 A 
ATOM      9  C8  <0> d   1       0.051  -2.871  -0.090  0.00  0.00     0.025 A 
ATOM     10  C9  <0> d   1       0.715  -3.748   0.715  0.00  0.00     0.124 A 
ATOM     11  N1  <0> d   1      -0.170  -4.241   1.606  0.00  0.00    -0.288 N 
ATOM     12  H1  <0> d   1       0.027  -4.888   2.302  0.00  0.00     0.188 HD
ATOM     13  N2  <0> d   1      -1.419  -3.662   1.357  0.00  0.00    -0.174 NA
BRANCH   9  14
ATOM     14  C7  <0> d   1       0.636  -2.094  -1.211  0.00  0.00     0.011 A 
ATOM     15  C2  <0> d   1       0.710  -0.701  -1.136  0.00  0.00     0.079 A 
ATOM     16  C3  <0> d   1       1.262   0.017  -2.184  0.00  0.00     0.037 A 
ATOM     17  C4  <0> d   1       1.733  -0.644  -3.304  0.00  0.00     0.003 A 
ATOM     18  C5  <0> d   1       1.655  -2.024  -3.384  0.00  0.00     0.001 A 
ATOM     19  C6  <0> d   1       1.107  -2.750  -2.346  0.00  0.00     0.015 A 
BRANCH  15  20
ATOM     20  O1  <0> d   1       0.247  -0.052  -0.035  0.00  0.00    -0.355 OA
ATOM     21  C1  <0> d   1       0.356   1.373  -0.029  0.00  0.00     0.210 C 
ENDBRANCH  15  20
ENDBRANCH   9  14
ENDBRANCH   1   8
BRANCH   4  22
ATOM     22  O3  <0> d   1      -5.396   0.293  -1.886  0.00  0.00    -0.342 OA
BRANCH  22  23
ATOM     23  C17 <0> d   1      -6.218   1.031  -0.980  0.00  0.00     0.279 C 
BRANCH  23  24
ATOM     24  C18 <0> d   1      -7.254   1.803  -1.756  0.00  0.00     0.255 C 
ATOM     25  O4  <0> d   1      -7.285   1.728  -2.966  0.00  0.00    -0.270 OA
ATOM     26  N3  <0> d   1      -8.145   2.577  -1.106  0.00  0.00    -0.292 N 
ATOM     27  H15 <0> d   1      -8.120   2.637  -0.138  0.00  0.00     0.183 HD
BRANCH  26  28
ATOM     28  N4  <0> d   1      -9.084   3.277  -1.810  0.00  0.00    -0.247 NA
ATOM     29  H16 <0> d   1      -9.629   2.663  -2.396  0.00  0.00     0.143 HD
ATOM     30  H17 <0> d   1      -9.678   3.808  -1.191  0.00  0.00     0.143 HD
ENDBRANCH  26  28
ENDBRANCH  23  24
ENDBRANCH  22  23
ENDBRANCH   4  22
TORSDOF 7
