REMARK  8 active torsions:
REMARK  status: ('A' for Active; 'I' for Inactive)
REMARK    1  A    between atoms: N2_5  and  C6_8 
REMARK    2  A    between atoms: C6_8  and  C7_9 
REMARK    3  A    between atoms: C8_10  and  O4_27 
REMARK    4  A    between atoms: C11_13  and  C13_16 
REMARK    5  A    between atoms: C12_14  and  O1_15 
REMARK    6  A    between atoms: C13_16  and  C14_18 
REMARK    7  A    between atoms: C14_18  and  C15_19 
REMARK    8  A    between atoms: C20_24  and  O3_25 
ROOT
ATOM      1  C7  <0> d   1       2.188  -4.533   1.006  0.00  0.00     0.037 A 
ATOM      2  C8  <0> d   1       3.530  -4.739   0.722  0.00  0.00     0.076 A 
ATOM      3  C9  <0> d   1       4.396  -5.197   1.713  0.00  0.00     0.038 A 
ATOM      4  C10 <0> d   1       3.933  -5.447   2.972  0.00  0.00     0.021 A 
ATOM      5  C11 <0> d   1       2.580  -5.245   3.276  0.00  0.00     0.044 A 
ATOM      6  C12 <0> d   1       1.705  -4.777   2.279  0.00  0.00     0.090 A 
ENDROOT
BRANCH   5   7
ATOM      7  C13 <0> d   1       2.081  -5.515   4.627  0.00  0.00     0.166 C 
ATOM      8  O2  <0> d   1       0.909  -5.339   4.887  0.00  0.00    -0.292 OA
BRANCH   7   9
ATOM      9  C14 <0> d   1       3.023  -6.011   5.693  0.00  0.00     0.125 C 
BRANCH   9  10
ATOM     10  C15 <0> d   1       2.266  -6.208   6.981  0.00  0.00    -0.018 A 
ATOM     11  C20 <0> d   1       1.589  -7.396   7.213  0.00  0.00     0.074 A 
ATOM     12  C19 <0> d   1       0.897  -7.577   8.402  0.00  0.00     0.037 A 
ATOM     13  C18 <0> d   1       0.874  -6.569   9.347  0.00  0.00     0.003 A 
ATOM     14  C17 <0> d   1       1.545  -5.383   9.110  0.00  0.00     0.001 A 
ATOM     15  C16 <0> d   1       2.239  -5.202   7.928  0.00  0.00     0.010 A 
BRANCH  11  16
ATOM     16  O3  <0> d   1       1.609  -8.384   6.280  0.00  0.00    -0.355 OA
ATOM     17  C21 <0> d   1       0.890  -9.581   6.587  0.00  0.00     0.210 C 
ENDBRANCH  11  16
ENDBRANCH   9  10
ENDBRANCH   7   9
ENDBRANCH   5   7
BRANCH   6  18
ATOM     18  O1  <0> d   1       0.395  -4.572   2.563  0.00  0.00    -0.359 OA
ATOM     19  H16 <0> d   1      -0.165  -5.347   2.417  0.00  0.00     0.217 HD
ENDBRANCH   6  18
BRANCH   1  20
ATOM     20  C6  <0> d   1       1.257  -4.037  -0.071  0.00  0.00     0.317 C 
BRANCH  20  21
ATOM     21  N2  <0> d   1       1.237  -2.568  -0.063  0.00  0.00     0.096 N 
ATOM     22  C3  <0> d   1       0.533  -2.045  -1.242  0.00  0.00     0.303 C 
ATOM     23  C2  <0> d   1       0.603  -0.516  -1.238  0.00  0.00     0.302 C 
ATOM     24  N1  <0> d   1       0.002  -0.004   0.002  0.00  0.00     0.087 N 
ATOM     25  C1  <0> d   1      -0.018   1.465   0.010  0.00  0.00     0.310 C 
ATOM     26  C5  <0> d   1       0.706  -0.528   1.181  0.00  0.00     0.302 C 
ATOM     27  C4  <0> d   1       0.636  -2.057   1.176  0.00  0.00     0.303 C 
ENDBRANCH  20  21
ENDBRANCH   1  20
BRANCH   2  28
ATOM     28  O4  <0> d   1       4.002  -4.494  -0.526  0.00  0.00    -0.360 OA
ATOM     29  H26 <0> d   1       4.316  -3.589  -0.657  0.00  0.00     0.217 HD
ENDBRANCH   2  28
TORSDOF 8
