REMARK  2 active torsions:
REMARK  status: ('A' for Active; 'I' for Inactive)
REMARK    1  A    between atoms: C3_4  and  C11_13 
REMARK    2  A    between atoms: C8_9  and  O1_11 
ROOT
ATOM      1  C1  <0> d   1       2.883   5.040   0.000  0.00  0.00     0.156 C 
ATOM      2  N1  <0> d   1       2.473   3.633  -0.002  0.00  0.00    -0.360 N 
ATOM      3  C2  <0> d   1       3.326   2.580  -0.016  0.00  0.00     0.103 A 
ATOM      4  C3  <0> d   1       2.605   1.405  -0.015  0.00  0.00    -0.005 A 
ATOM      5  C4  <0> d   1       1.181   1.792   0.000  0.00  0.00     0.005 A 
ATOM      6  C5  <0> d   1       1.162   3.196   0.008  0.00  0.00     0.045 A 
ATOM      7  C6  <0> d   1      -0.059   3.862   0.022  0.00  0.00     0.033 A 
ATOM      8  C7  <0> d   1      -1.236   3.146   0.030  0.00  0.00     0.039 A 
ATOM      9  C8  <0> d   1      -1.217   1.755   0.017  0.00  0.00     0.069 A 
ATOM     10  C9  <0> d   1      -0.013   1.076   0.008  0.00  0.00     0.051 A 
ENDROOT
BRANCH   4  11
ATOM     11  C11 <0> d   1       3.144   0.046  -0.027  0.00  0.00     0.055 C 
ATOM     12  C12 <0> d   1       4.492  -0.152  -0.040  0.00  0.00     0.128 A 
ATOM     13  O3  <0> d   1       5.434   0.820  -0.050  0.00  0.00    -0.306 OA
ATOM     14  C13 <0> d   1       5.145  -1.413  -0.053  0.00  0.00     0.218 A 
ATOM     15  C19 <0> d   1       6.680   0.300  -0.058  0.00  0.00     0.093 A 
ATOM     16  C14 <0> d   1       6.585  -1.102  -0.065  0.00  0.00     0.051 A 
ATOM     17  C18 <0> d   1       7.937   0.890  -0.067  0.00  0.00     0.078 A 
ATOM     18  C15 <0> d   1       7.738  -1.887  -0.079  0.00  0.00     0.021 A 
ATOM     19  C16 <0> d   1       8.967  -1.291  -0.088  0.00  0.00     0.041 A 
ATOM     20  C17 <0> d   1       9.073   0.097  -0.082  0.00  0.00     0.110 A 
ATOM     21  O4  <0> d   1      10.300   0.679  -0.090  0.00  0.00    -0.192 OA
ATOM     22  O2  <0> d   1       4.625  -2.517  -0.053  0.00  0.00    -0.284 OA
ENDBRANCH   4  11
BRANCH   9  23
ATOM     23  O1  <0> d   1      -2.387   1.061   0.019  0.00  0.00    -0.356 OA
ATOM     24  C10 <0> d   1      -3.594   1.825   0.029  0.00  0.00     0.210 C 
ENDBRANCH   9  23
TORSDOF 2
