REMARK  6 active torsions:
REMARK  status: ('A' for Active; 'I' for Inactive)
REMARK    1  A    between atoms: C4_4  and  C7_7 
REMARK    2  A    between atoms: C9_12  and  C10_13 
REMARK    3  A    between atoms: C13_16  and  O2_20 
REMARK    4  A    between atoms: O2_20  and  C16_21 
REMARK    5  A    between atoms: C16_21  and  C17_22 
REMARK    6  A    between atoms: C17_22  and  N3_23 
ROOT
ATOM      1  C10 <0> d   1       2.733  -1.782   1.914  0.00  0.00     0.032 A 
ATOM      2  C11 <0> d   1       1.383  -1.476   2.075  0.00  0.00     0.019 A 
ATOM      3  C12 <0> d   1       0.678  -2.005   3.136  0.00  0.00     0.038 A 
ATOM      4  C13 <0> d   1       1.311  -2.843   4.046  0.00  0.00     0.071 A 
ATOM      5  C14 <0> d   1       2.654  -3.152   3.892  0.00  0.00     0.077 A 
ATOM      6  C15 <0> d   1       3.367  -2.631   2.826  0.00  0.00     0.122 A 
ATOM      7  O1  <0> d   1       4.681  -2.938   2.671  0.00  0.00    -0.191 OA
ENDROOT
BRANCH   1   8
ATOM      8  C9  <0> d   1       3.493  -1.214   0.774  0.00  0.00     0.102 A 
ATOM      9  C7  <0> d   1       3.072  -1.188  -0.580  0.00  0.00     0.022 A 
ATOM     10  C8  <0> d   1       4.054  -0.577  -1.301  0.00  0.00     0.124 A 
ATOM     11  N1  <0> d   1       5.044  -0.240  -0.450  0.00  0.00    -0.288 N 
ATOM     12  H1  <0> d   1       5.870   0.209  -0.689  0.00  0.00     0.188 HD
ATOM     13  N2  <0> d   1       4.678  -0.648   0.838  0.00  0.00    -0.174 NA
BRANCH   9  14
ATOM     14  C4  <0> d   1       1.795  -1.723  -1.113  0.00  0.00    -0.022 A 
ATOM     15  C3  <0> d   1       0.938  -0.896  -1.835  0.00  0.00     0.012 A 
ATOM     16  C2  <0> d   1      -0.249  -1.399  -2.329  0.00  0.00     0.001 A 
ATOM     17  C1  <0> d   1      -0.587  -2.722  -2.108  0.00  0.00     0.000 A 
ATOM     18  C6  <0> d   1       0.260  -3.547  -1.392  0.00  0.00     0.001 A 
ATOM     19  C5  <0> d   1       1.449  -3.055  -0.893  0.00  0.00     0.012 A 
ENDBRANCH   9  14
ENDBRANCH   1   8
BRANCH   4  20
ATOM     20  O2  <0> d   1       0.611  -3.361   5.089  0.00  0.00    -0.349 OA
BRANCH  20  21
ATOM     21  C16 <0> d   1       1.323  -4.215   5.987  0.00  0.00     0.203 C 
BRANCH  21  22
ATOM     22  C17 <0> d   1       0.377  -4.698   7.088  0.00  0.00     0.261 C 
BRANCH  22  23
ATOM     23  N3  <0> d   1      -0.691  -5.514   6.495  0.00  0.00    -0.069 N 
ATOM     24  C22 <0> d   1      -0.113  -6.743   5.939  0.00  0.00     0.235 C 
ATOM     25  C21 <0> d   1      -1.208  -7.559   5.248  0.00  0.00     0.028 C 
ATOM     26  C20 <0> d   1      -2.291  -7.918   6.270  0.00  0.00     0.003 C 
ATOM     27  C19 <0> d   1      -2.834  -6.631   6.897  0.00  0.00     0.028 C 
ATOM     28  C18 <0> d   1      -1.679  -5.850   7.527  0.00  0.00     0.235 C 
ATOM     29  H25 <0> d   1      -1.141  -4.992   5.758  0.00  0.00     0.280 HD
ENDBRANCH  22  23
ENDBRANCH  21  22
ENDBRANCH  20  21
ENDBRANCH   4  20
TORSDOF 6
