REMARK  6 active torsions:
REMARK  status: ('A' for Active; 'I' for Inactive)
REMARK    1  A    between atoms: C5_5  and  C19_23 
REMARK    2  A    between atoms: C10_11  and  C11_12 
REMARK    3  A    between atoms: C15_16  and  O3_20 
REMARK    4  A    between atoms: C16_17  and  O2_18 
REMARK    5  A    between atoms: C19_23  and  N1_24 
REMARK    6  A    between atoms: N2_27  and  C24_30 
ROOT
ATOM      1  C1  <0> d   1       0.227   2.613   1.071  0.00  0.00     0.049 C 
ATOM      2  C2  <0> d   1       0.738   1.249   0.682  0.00  0.00    -0.042 A 
ATOM      3  C3  <0> d   1       1.294   1.052  -0.550  0.00  0.00     0.048 A 
ATOM      4  C4  <0> d   1       1.766  -0.206  -0.911  0.00  0.00     0.118 A 
ATOM      5  C5  <0> d   1       1.679  -1.272  -0.029  0.00  0.00     0.039 A 
ATOM      6  C6  <0> d   1       1.116  -1.089   1.227  0.00  0.00     0.102 A 
ATOM      7  C7  <0> d   1       0.648   0.187   1.582  0.00  0.00     0.057 A 
ATOM      8  C8  <0> d   1       0.123   0.070   2.955  0.00  0.00     0.219 A 
ATOM      9  O1  <0> d   1      -0.381   0.944   3.638  0.00  0.00    -0.284 OA
ATOM     10  C9  <0> d   1       0.342  -1.339   3.314  0.00  0.00     0.128 A 
ATOM     11  C10 <0> d   1       0.015  -1.925   4.495  0.00  0.00     0.055 C 
ATOM     12  O4  <0> d   1       0.916  -1.948   2.250  0.00  0.00    -0.305 OA
ATOM     13  O5  <0> d   1       2.317  -0.392  -2.138  0.00  0.00    -0.191 OA
ENDROOT
BRANCH   5  14
ATOM     14  C19 <0> d   1       2.194  -2.629  -0.434  0.00  0.00     0.279 C 
BRANCH  14  15
ATOM     15  N1  <0> d   1       3.608  -2.750  -0.054  0.00  0.00    -0.064 N 
ATOM     16  C23 <0> d   1       4.075  -4.112  -0.340  0.00  0.00     0.255 C 
ATOM     17  C22 <0> d   1       5.514  -4.273   0.161  0.00  0.00     0.150 C 
ATOM     18  N2  <0> d   1       6.337  -3.211  -0.438  0.00  0.00    -0.378 N 
ATOM     19  C21 <0> d   1       5.857  -1.823  -0.340  0.00  0.00     0.150 C 
ATOM     20  C20 <0> d   1       4.402  -1.778  -0.817  0.00  0.00     0.255 C 
ATOM     21  H29 <0> d   1       3.707  -2.561   0.932  0.00  0.00     0.280 HD
BRANCH  18  22
ATOM     22  C24 <0> d   1       7.542  -3.511  -1.081  0.00  0.00     0.030 A 
ATOM     23  C29 <0> d   1       8.045  -4.805  -1.047  0.00  0.00     0.032 A 
ATOM     24  C28 <0> d   1       9.232  -5.101  -1.687  0.00  0.00     0.044 A 
ATOM     25  C27 <0> d   1       9.927  -4.105  -2.353  0.00  0.00     0.116 A 
ATOM     26  C26 <0> d   1       9.431  -2.813  -2.384  0.00  0.00     0.044 A 
ATOM     27  F1  <0> d   1      11.091  -4.395  -2.974  0.00  0.00    -0.206 F 
ATOM     28  C25 <0> d   1       8.241  -2.514  -1.750  0.00  0.00     0.032 A 
ENDBRANCH  18  22
ENDBRANCH  14  15
ENDBRANCH   5  14
BRANCH  11  29
ATOM     29  C11 <0> d   1       0.216  -3.368   4.678  0.00  0.00     0.003 A 
ATOM     30  C16 <0> d   1       0.136  -3.934   5.959  0.00  0.00     0.111 A 
ATOM     31  C15 <0> d   1       0.323  -5.303   6.118  0.00  0.00     0.102 A 
ATOM     32  C14 <0> d   1       0.597  -6.098   5.017  0.00  0.00     0.040 A 
ATOM     33  C13 <0> d   1       0.681  -5.538   3.752  0.00  0.00     0.004 A 
ATOM     34  C12 <0> d   1       0.493  -4.186   3.575  0.00  0.00     0.014 A 
BRANCH  30  35
ATOM     35  O2  <0> d   1      -0.126  -3.151   7.037  0.00  0.00    -0.352 OA
ATOM     36  C17 <0> d   1      -1.499  -2.971   7.389  0.00  0.00     0.210 C 
ENDBRANCH  30  35
BRANCH  31  37
ATOM     37  O3  <0> d   1       0.242  -5.861   7.356  0.00  0.00    -0.353 OA
ATOM     38  C18 <0> d   1       0.450  -7.272   7.446  0.00  0.00     0.210 C 
ENDBRANCH  31  37
ENDBRANCH  11  29
TORSDOF 6
