REMARK  7 active torsions:
REMARK  status: ('A' for Active; 'I' for Inactive)
REMARK    1  A    between atoms: C4_5  and  C5_7 
REMARK    2  A    between atoms: C10_12  and  O4_28 
REMARK    3  A    between atoms: C11_13  and  C14_18 
REMARK    4  A    between atoms: C14_18  and  N2_19 
REMARK    5  A    between atoms: N3_22  and  C19_25 
REMARK    6  A    between atoms: C19_25  and  C20_26 
REMARK    7  A    between atoms: C20_26  and  O3_27 
ROOT
ATOM      1  C5  <0> d   1       2.350   2.355  -0.147  0.00  0.00     0.076 A 
ATOM      2  C6  <0> d   1       1.315   1.440  -0.113  0.00  0.00     0.034 A 
ATOM      3  C7  <0> d   1      -0.018   1.919  -0.060  0.00  0.00    -0.000 A 
ATOM      4  C8  <0> d   1      -1.090   1.014  -0.016  0.00  0.00     0.017 A 
ATOM      5  C9  <0> d   1      -2.371   1.479   0.041  0.00  0.00     0.038 A 
ATOM      6  C10 <0> d   1      -2.623   2.849   0.063  0.00  0.00     0.076 A 
ATOM      7  C11 <0> d   1      -1.578   3.757   0.028  0.00  0.00     0.038 A 
ATOM      8  C12 <0> d   1      -0.268   3.303  -0.031  0.00  0.00     0.100 A 
ATOM      9  O1  <0> d   1       0.750   4.191  -0.065  0.00  0.00    -0.273 OA
ATOM     10  C13 <0> d   1       2.030   3.786  -0.121  0.00  0.00     0.301 A 
ATOM     11  O2  <0> d   1       2.926   4.609  -0.151  0.00  0.00    -0.259 OA
ENDROOT
BRANCH   7  12
ATOM     12  C14 <0> d   1      -1.863   5.237   0.052  0.00  0.00     0.317 C 
BRANCH  12  13
ATOM     13  N2  <0> d   1      -2.014   5.729  -1.324  0.00  0.00     0.096 N 
ATOM     14  C18 <0> d   1      -2.524   7.107  -1.338  0.00  0.00     0.303 C 
ATOM     15  C17 <0> d   1      -2.741   7.554  -2.785  0.00  0.00     0.302 C 
ATOM     16  N3  <0> d   1      -1.472   7.457  -3.521  0.00  0.00     0.093 N 
ATOM     17  C16 <0> d   1      -0.962   6.079  -3.507  0.00  0.00     0.302 C 
ATOM     18  C15 <0> d   1      -0.745   5.633  -2.059  0.00  0.00     0.303 C 
BRANCH  16  19
ATOM     19  C19 <0> d   1      -1.622   7.950  -4.896  0.00  0.00     0.298 C 
BRANCH  19  20
ATOM     20  C20 <0> d   1      -1.675   9.479  -4.888  0.00  0.00     0.194 C 
BRANCH  20  21
ATOM     21  O3  <0> d   1      -0.424   9.996  -4.429  0.00  0.00    -0.399 OA
ATOM     22  H22 <0> d   1      -0.273  11.083  -4.355  0.00  0.00     0.209 HD
ENDBRANCH  20  21
ENDBRANCH  19  20
ENDBRANCH  16  19
ENDBRANCH  12  13
ENDBRANCH   7  12
BRANCH   6  23
ATOM     23  O4  <0> d   1      -3.904   3.297   0.120  0.00  0.00    -0.360 OA
ATOM     24  H23 <0> d   1      -4.107   4.378   0.137  0.00  0.00     0.217 HD
ENDBRANCH   6  23
BRANCH   1  25
ATOM     25  C4  <0> d   1       3.752   1.901  -0.208  0.00  0.00     0.114 A 
ATOM     26  S1  <0> d   1       4.405   0.237  -0.249  0.00  0.00    -0.079 SA
ATOM     27  C3  <0> d   1       6.136   0.684  -0.317  0.00  0.00     0.078 A 
ATOM     28  C2  <0> d   1       6.046   2.040  -0.302  0.00  0.00     0.038 A 
ATOM     29  C1  <0> d   1       7.297   2.879  -0.346  0.00  0.00     0.071 C 
ATOM     30  N1  <0> d   1       4.868   2.618  -0.253  0.00  0.00    -0.245 NA
ENDBRANCH   1  25
TORSDOF 7
