REMARK  2 active torsions:
REMARK  status: ('A' for Active; 'I' for Inactive)
REMARK    1  A    between atoms: C2_2  and  N1_3 
REMARK    2  A    between atoms: C4_5  and  C11_12 
ROOT
ATOM      1  C11 <0> d   1       0.526  -1.272   5.178  0.00  0.00     0.055 C 
ATOM      2  C12 <0> d   1      -0.404  -2.264   5.097  0.00  0.00     0.128 A 
ATOM      3  C13 <0> d   1      -0.514  -3.373   5.978  0.00  0.00     0.218 A 
ATOM      4  O1  <0> d   1       0.190  -3.626   6.942  0.00  0.00    -0.284 OA
ATOM      5  C14 <0> d   1      -1.662  -4.149   5.480  0.00  0.00     0.051 A 
ATOM      6  C15 <0> d   1      -2.280  -5.328   5.898  0.00  0.00     0.021 A 
ATOM      7  C16 <0> d   1      -3.353  -5.816   5.208  0.00  0.00     0.041 A 
ATOM      8  C17 <0> d   1      -3.833  -5.141   4.089  0.00  0.00     0.110 A 
ATOM      9  C18 <0> d   1      -3.230  -3.969   3.662  0.00  0.00     0.078 A 
ATOM     10  C19 <0> d   1      -2.138  -3.460   4.352  0.00  0.00     0.093 A 
ATOM     11  O2  <0> d   1      -1.376  -2.362   4.160  0.00  0.00    -0.306 OA
ATOM     12  O3  <0> d   1      -4.900  -5.635   3.411  0.00  0.00    -0.192 OA
ENDROOT
BRANCH   1  13
ATOM     13  C4  <0> d   1       0.528  -0.189   4.197  0.00  0.00    -0.005 A 
ATOM     14  C3  <0> d   1      -0.344  -0.029   3.141  0.00  0.00     0.103 A 
ATOM     15  N1  <0> d   1      -0.020   1.094   2.454  0.00  0.00    -0.356 N 
ATOM     16  C6  <0> d   1       1.066   1.720   3.032  0.00  0.00     0.045 A 
ATOM     17  C5  <0> d   1       1.459   0.954   4.141  0.00  0.00     0.002 A 
ATOM     18  C7  <0> d   1       1.768   2.879   2.720  0.00  0.00     0.030 A 
ATOM     19  C10 <0> d   1       2.541   1.357   4.920  0.00  0.00     0.014 A 
ATOM     20  C9  <0> d   1       3.224   2.508   4.595  0.00  0.00     0.001 A 
ATOM     21  C8  <0> d   1       2.838   3.265   3.499  0.00  0.00     0.002 A 
BRANCH  15  22
ATOM     22  C2  <0> d   1      -0.729   1.579   1.267  0.00  0.00     0.124 C 
ATOM     23  C1  <0> d   1      -0.013   1.086   0.008  0.00  0.00     0.027 C 
ENDBRANCH  15  22
ENDBRANCH   1  13
TORSDOF 2
