REMARK  3 active torsions:
REMARK  status: ('A' for Active; 'I' for Inactive)
REMARK    1  A    between atoms: C3_3  and  C14_18 
REMARK    2  A    between atoms: C9_10  and  C11_13 
REMARK    3  A    between atoms: C11_13  and  N1_14 
ROOT
ATOM      1  C1  <0> d   1      -3.632   3.836   0.632  0.00  0.00     0.077 C 
ATOM      2  C2  <0> d   1      -3.514   2.978  -0.601  0.00  0.00     0.065 A 
ATOM      3  C3  <0> d   1      -4.099   3.403  -1.751  0.00  0.00     0.054 A 
ATOM      4  C4  <0> d   1      -3.984   2.563  -2.955  0.00  0.00     0.198 A 
ATOM      5  O1  <0> d   1      -4.488   2.893  -4.015  0.00  0.00    -0.286 OA
ATOM      6  C5  <0> d   1      -3.229   1.304  -2.818  0.00  0.00     0.050 A 
ATOM      7  C6  <0> d   1      -3.062   0.439  -3.900  0.00  0.00     0.021 A 
ATOM      8  C7  <0> d   1      -2.357  -0.720  -3.738  0.00  0.00     0.041 A 
ATOM      9  C8  <0> d   1      -1.805  -1.040  -2.499  0.00  0.00     0.118 A 
ATOM     10  C9  <0> d   1      -1.962  -0.191  -1.417  0.00  0.00     0.039 A 
ATOM     11  C10 <0> d   1      -2.681   0.989  -1.563  0.00  0.00     0.100 A 
ATOM     12  O2  <0> d   1      -2.838   1.829  -0.521  0.00  0.00    -0.313 OA
ATOM     13  O3  <0> d   1      -1.106  -2.194  -2.352  0.00  0.00    -0.191 OA
ENDROOT
BRANCH   3  14
ATOM     14  C14 <0> d   1      -4.840   4.687  -1.792  0.00  0.00    -0.019 A 
ATOM     15  C19 <0> d   1      -6.213   4.695  -2.029  0.00  0.00     0.012 A 
ATOM     16  C18 <0> d   1      -6.897   5.893  -2.066  0.00  0.00     0.001 A 
ATOM     17  C17 <0> d   1      -6.222   7.084  -1.870  0.00  0.00     0.000 A 
ATOM     18  C16 <0> d   1      -4.859   7.082  -1.635  0.00  0.00     0.001 A 
ATOM     19  C15 <0> d   1      -4.166   5.890  -1.589  0.00  0.00     0.012 A 
ENDBRANCH   3  14
BRANCH  10  20
ATOM     20  C11 <0> d   1      -1.360  -0.549  -0.083  0.00  0.00     0.278 C 
BRANCH  20  21
ATOM     21  N1  <0> d   1       0.002  -0.004   0.002  0.00  0.00    -0.075 N 
ATOM     22  C12 <0> d   1      -0.018   1.465   0.010  0.00  0.00     0.269 C 
ATOM     23  C13 <0> d   1       0.706  -0.527   1.180  0.00  0.00     0.269 C 
ATOM     24  H19 <0> d   1       0.552  -0.330  -0.893  0.00  0.00     0.279 HD
ENDBRANCH  20  21
ENDBRANCH  10  20
TORSDOF 3
