REMARK  6 active torsions:
REMARK  status: ('A' for Active; 'I' for Inactive)
REMARK    1  A    between atoms: C4_4  and  C7_7 
REMARK    2  A    between atoms: C14_15  and  C16_18 
REMARK    3  A    between atoms: C16_18  and  N1_19 
REMARK    4  A    between atoms: N2_22  and  C21_25 
REMARK    5  A    between atoms: C21_25  and  C22_26 
REMARK    6  A    between atoms: C22_26  and  O3_27 
ROOT
ATOM      1  C7  <0> d   1       4.281  -3.585  -0.389  0.00  0.00     0.053 C 
ATOM      2  C8  <0> d   1       3.436  -2.525  -0.431  0.00  0.00     0.127 A 
ATOM      3  C9  <0> d   1       1.975  -2.582  -0.602  0.00  0.00     0.218 A 
ATOM      4  O1  <0> d   1       1.278  -3.573  -0.735  0.00  0.00    -0.284 OA
ATOM      5  C10 <0> d   1       1.545  -1.173  -0.578  0.00  0.00     0.051 A 
ATOM      6  C11 <0> d   1       0.299  -0.553  -0.688  0.00  0.00     0.021 A 
ATOM      7  C12 <0> d   1       0.209   0.809  -0.627  0.00  0.00     0.041 A 
ATOM      8  C13 <0> d   1       1.356   1.579  -0.455  0.00  0.00     0.118 A 
ATOM      9  C14 <0> d   1       2.599   0.977  -0.344  0.00  0.00     0.041 A 
ATOM     10  C15 <0> d   1       2.708  -0.406  -0.404  0.00  0.00     0.101 A 
ATOM     11  O2  <0> d   1       3.783  -1.221  -0.323  0.00  0.00    -0.305 OA
ATOM     12  O4  <0> d   1       1.255   2.931  -0.396  0.00  0.00    -0.191 OA
ENDROOT
BRANCH   9  13
ATOM     13  C16 <0> d   1       3.831   1.824  -0.157  0.00  0.00     0.317 C 
BRANCH  13  14
ATOM     14  N1  <0> d   1       4.390   2.171  -1.471  0.00  0.00     0.096 N 
ATOM     15  C20 <0> d   1       5.447   3.184  -1.342  0.00  0.00     0.303 C 
ATOM     16  C19 <0> d   1       5.947   3.575  -2.735  0.00  0.00     0.302 C 
ATOM     17  N2  <0> d   1       6.449   2.380  -3.426  0.00  0.00     0.093 N 
ATOM     18  C18 <0> d   1       5.392   1.367  -3.555  0.00  0.00     0.302 C 
ATOM     19  C17 <0> d   1       4.892   0.975  -2.162  0.00  0.00     0.303 C 
BRANCH  17  20
ATOM     20  C21 <0> d   1       7.008   2.727  -4.740  0.00  0.00     0.298 C 
BRANCH  20  21
ATOM     21  C22 <0> d   1       8.378   3.382  -4.554  0.00  0.00     0.194 C 
BRANCH  21  22
ATOM     22  O3  <0> d   1       9.289   2.432  -3.999  0.00  0.00    -0.399 OA
ATOM     23  H23 <0> d   1      10.330   2.723  -3.793  0.00  0.00     0.209 HD
ENDBRANCH  21  22
ENDBRANCH  20  21
ENDBRANCH  17  20
ENDBRANCH  13  14
ENDBRANCH   9  13
BRANCH   1  24
ATOM     24  C4  <0> d   1       5.734  -3.366  -0.355  0.00  0.00    -0.034 A 
ATOM     25  C3  <0> d   1       6.255  -2.076  -0.501  0.00  0.00     0.011 A 
ATOM     26  C2  <0> d   1       7.619  -1.879  -0.467  0.00  0.00     0.001 A 
ATOM     27  C1  <0> d   1       8.473  -2.954  -0.288  0.00  0.00     0.000 A 
ATOM     28  C6  <0> d   1       7.965  -4.234  -0.143  0.00  0.00     0.001 A 
ATOM     29  C5  <0> d   1       6.604  -4.447  -0.169  0.00  0.00     0.011 A 
ENDBRANCH   1  24
TORSDOF 6
