REMARK  8 active torsions:
REMARK  status: ('A' for Active; 'I' for Inactive)
REMARK    1  A    between atoms: C2_2  and  C3_3 
REMARK    2  A    between atoms: C3_3  and  C4_4 
REMARK    3  A    between atoms: C4_4  and  N1_5 
REMARK    4  A    between atoms: N1_5  and  C6_7 
REMARK    5  A    between atoms: C6_7  and  C7_8 
REMARK    6  A    between atoms: C8_9  and  O3_30 
REMARK    7  A    between atoms: C14_16  and  C15_17 
REMARK    8  A    between atoms: N2_19  and  C23_26 
ROOT
ATOM      1  C7  <0> d   1      -1.940  -3.442  -0.003  0.00  0.00     0.035 A 
ATOM      2  C8  <0> d   1      -2.791  -4.535  -0.004  0.00  0.00     0.076 A 
ATOM      3  C9  <0> d   1      -4.171  -4.357   0.002  0.00  0.00     0.038 A 
ATOM      4  C10 <0> d   1      -4.703  -3.098   0.010  0.00  0.00     0.021 A 
ATOM      5  C11 <0> d   1      -3.859  -1.988   0.012  0.00  0.00     0.051 A 
ATOM      6  C12 <0> d   1      -2.464  -2.156   0.005  0.00  0.00     0.101 A 
ATOM      7  O1  <0> d   1      -1.879  -0.939   0.007  0.00  0.00    -0.305 OA
ATOM      8  C13 <0> d   1      -2.801   0.053   0.016  0.00  0.00     0.128 A 
ATOM      9  C14 <0> d   1      -2.533   1.389   0.021  0.00  0.00     0.055 C 
ATOM     10  C25 <0> d   1      -4.095  -0.534   0.024  0.00  0.00     0.218 A 
ATOM     11  O2  <0> d   1      -5.170   0.042   0.037  0.00  0.00    -0.284 OA
ENDROOT
BRANCH   9  12
ATOM     12  C15 <0> d   1      -1.149   1.856   0.017  0.00  0.00    -0.005 A 
ATOM     13  C18 <0> d   1      -0.688   3.258   0.025  0.00  0.00     0.002 A 
ATOM     14  C17 <0> d   1       0.715   3.204   0.012  0.00  0.00     0.045 A 
ATOM     15  C19 <0> d   1      -1.339   4.488   0.037  0.00  0.00     0.014 A 
ATOM     16  N2  <0> d   1       1.084   1.873   0.002  0.00  0.00    -0.356 N 
ATOM     17  C22 <0> d   1       1.443   4.389   0.011  0.00  0.00     0.030 A 
ATOM     18  C16 <0> d   1      -0.013   1.076   0.008  0.00  0.00     0.103 A 
ATOM     19  C21 <0> d   1       0.785   5.600   0.023  0.00  0.00     0.002 A 
ATOM     20  C20 <0> d   1      -0.601   5.652   0.036  0.00  0.00     0.001 A 
BRANCH  16  21
ATOM     21  C23 <0> d   1       2.467   1.391  -0.013  0.00  0.00     0.124 C 
ATOM     22  C24 <0> d   1       3.003   1.334   1.419  0.00  0.00     0.027 C 
ENDBRANCH  16  21
ENDBRANCH   9  12
BRANCH   1  23
ATOM     23  C6  <0> d   1      -0.447  -3.647  -0.010  0.00  0.00     0.278 C 
BRANCH  23  24
ATOM     24  N1  <0> d   1       0.044  -3.720   1.373  0.00  0.00    -0.071 N 
ATOM     25  C5  <0> d   1      -0.129  -2.434   2.061  0.00  0.00     0.270 C 
ATOM     26  H28 <0> d   1      -0.557  -4.472   1.905  0.00  0.00     0.279 HD
BRANCH  24  27
ATOM     27  C4  <0> d   1       1.447  -4.154   1.411  0.00  0.00     0.234 C 
BRANCH  27  28
ATOM     28  C3  <0> d   1       1.847  -4.459   2.856  0.00  0.00     0.027 C 
BRANCH  28  29
ATOM     29  C2  <0> d   1       3.308  -4.910   2.896  0.00  0.00    -0.003 C 
ATOM     30  C1  <0> d   1       3.708  -5.215   4.341  0.00  0.00     0.005 C 
ENDBRANCH  28  29
ENDBRANCH  27  28
ENDBRANCH  24  27
ENDBRANCH  23  24
ENDBRANCH   1  23
BRANCH   2  31
ATOM     31  O3  <0> d   1      -2.274  -5.790  -0.012  0.00  0.00    -0.360 OA
ATOM     32  H29 <0> d   1      -2.945  -6.662  -0.013  0.00  0.00     0.217 HD
ENDBRANCH   2  31
TORSDOF 8
