REMARK  5 active torsions:
REMARK  status: ('A' for Active; 'I' for Inactive)
REMARK    1  A    between atoms: N2_5  and  C6_8 
REMARK    2  A    between atoms: C6_8  and  C7_9 
REMARK    3  A    between atoms: C7_9  and  O1_10 
REMARK    4  A    between atoms: O1_10  and  C8_11 
REMARK    5  A    between atoms: C15_19  and  C17_22 
ROOT
ATOM      1  C8  <0> d   1      -0.271   1.068   2.382  0.00  0.00     0.071 A 
ATOM      2  C9  <0> d   1       0.927   0.357   2.432  0.00  0.00     0.038 A 
ATOM      3  C10 <0> d   1       1.451  -0.024   3.634  0.00  0.00     0.021 A 
ATOM      4  C11 <0> d   1       0.778   0.291   4.815  0.00  0.00     0.049 A 
ATOM      5  C12 <0> d   1      -0.433   1.003   4.775  0.00  0.00     0.091 A 
ATOM      6  C13 <0> d   1      -0.950   1.388   3.545  0.00  0.00     0.075 A 
ATOM      7  O2  <0> d   1      -1.082   1.306   5.916  0.00  0.00    -0.321 OA
ATOM      8  C14 <0> d   1      -0.635   0.964   7.127  0.00  0.00     0.159 A 
ATOM      9  C15 <0> d   1       0.520   0.275   7.311  0.00  0.00     0.048 A 
ATOM     10  C16 <0> d   1       1.311  -0.109   6.130  0.00  0.00     0.197 A 
ATOM     11  O3  <0> d   1       2.356  -0.729   6.234  0.00  0.00    -0.286 OA
ENDROOT
BRANCH   1  12
ATOM     12  O1  <0> d   1      -0.778   1.446   1.181  0.00  0.00    -0.349 OA
BRANCH  12  13
ATOM     13  C7  <0> d   1      -0.030   1.085   0.018  0.00  0.00     0.203 C 
BRANCH  13  14
ATOM     14  C6  <0> d   1      -0.753   1.593  -1.232  0.00  0.00     0.261 C 
BRANCH  14  15
ATOM     15  N2  <0> d   1      -0.773   3.062  -1.223  0.00  0.00    -0.066 N 
ATOM     16  C3  <0> d   1       0.542   3.608  -1.588  0.00  0.00     0.265 C 
ATOM     17  C2  <0> d   1       0.501   5.135  -1.491  0.00  0.00     0.299 C 
ATOM     18  N1  <0> d   1      -0.546   5.652  -2.382  0.00  0.00     0.087 N 
ATOM     19  C1  <0> d   1      -0.567   7.121  -2.374  0.00  0.00     0.310 C 
ATOM     20  C5  <0> d   1      -1.861   5.106  -2.017  0.00  0.00     0.299 C 
ATOM     21  C4  <0> d   1      -1.821   3.579  -2.114  0.00  0.00     0.265 C 
ATOM     22  H24 <0> d   1      -1.005   3.389  -0.199  0.00  0.00     0.280 HD
ENDBRANCH  14  15
ENDBRANCH  13  14
ENDBRANCH  12  13
ENDBRANCH   1  12
BRANCH   9  23
ATOM     23  C17 <0> d   1       0.977  -0.085   8.676  0.00  0.00    -0.020 A 
ATOM     24  C22 <0> d   1       1.033   0.888   9.673  0.00  0.00     0.014 A 
ATOM     25  C21 <0> d   1       1.459   0.548  10.941  0.00  0.00     0.024 A 
ATOM     26  C20 <0> d   1       1.829  -0.755  11.224  0.00  0.00     0.034 A 
ATOM     27  C19 <0> d   1       1.774  -1.725  10.237  0.00  0.00     0.024 A 
ATOM     28 Cl1  <0> d   1       2.363  -1.176  12.821  0.00  0.00    -0.084 Cl
ATOM     29  C18 <0> d   1       1.345  -1.397   8.967  0.00  0.00     0.014 A 
ENDBRANCH   9  23
TORSDOF 5
