REMARK  5 active torsions:
REMARK  status: ('A' for Active; 'I' for Inactive)
REMARK    1  A    between atoms: N2_5  and  C6_8 
REMARK    2  A    between atoms: C6_8  and  C7_9 
REMARK    3  A    between atoms: C7_9  and  O1_10 
REMARK    4  A    between atoms: O1_10  and  C8_11 
REMARK    5  A    between atoms: C15_19  and  C17_22 
ROOT
ATOM      1  C8  <0> d   1       2.021  -7.131  -0.631  0.00  0.00     0.071 A 
ATOM      2  C9  <0> d   1       2.731  -6.509  -1.657  0.00  0.00     0.038 A 
ATOM      3  C10 <0> d   1       2.798  -5.146  -1.721  0.00  0.00     0.021 A 
ATOM      4  C11 <0> d   1       2.151  -4.375  -0.754  0.00  0.00     0.049 A 
ATOM      5  C12 <0> d   1       1.433  -4.992   0.285  0.00  0.00     0.091 A 
ATOM      6  C13 <0> d   1       1.375  -6.379   0.335  0.00  0.00     0.075 A 
ATOM      7  O2  <0> d   1       0.809  -4.246   1.217  0.00  0.00    -0.321 OA
ATOM      8  C14 <0> d   1       0.828  -2.911   1.221  0.00  0.00     0.159 A 
ATOM      9  C15 <0> d   1       1.484  -2.187   0.278  0.00  0.00     0.048 A 
ATOM     10  C16 <0> d   1       2.197  -2.902  -0.794  0.00  0.00     0.197 A 
ATOM     11  O3  <0> d   1       2.799  -2.305  -1.671  0.00  0.00    -0.286 OA
ENDROOT
BRANCH   1  12
ATOM     12  O1  <0> d   1       1.962  -8.486  -0.580  0.00  0.00    -0.349 OA
BRANCH  12  13
ATOM     13  C7  <0> d   1       2.650  -9.204  -1.606  0.00  0.00     0.203 C 
BRANCH  13  14
ATOM     14  C6  <0> d   1       2.472 -10.708  -1.383  0.00  0.00     0.261 C 
BRANCH  14  15
ATOM     15  N2  <0> d   1       1.056 -11.062  -1.544  0.00  0.00    -0.066 N 
ATOM     16  C3  <0> d   1       0.676 -11.083  -2.964  0.00  0.00     0.265 C 
ATOM     17  C2  <0> d   1      -0.821 -11.378  -3.085  0.00  0.00     0.299 C 
ATOM     18  N1  <0> d   1      -1.117 -12.667  -2.444  0.00  0.00     0.087 N 
ATOM     19  C1  <0> d   1      -2.534 -13.021  -2.606  0.00  0.00     0.310 C 
ATOM     20  C5  <0> d   1      -0.738 -12.646  -1.025  0.00  0.00     0.299 C 
ATOM     21  C4  <0> d   1       0.759 -12.351  -0.904  0.00  0.00     0.265 C 
ATOM     22  H25 <0> d   1       0.456 -10.288  -1.043  0.00  0.00     0.280 HD
ENDBRANCH  14  15
ENDBRANCH  13  14
ENDBRANCH  12  13
ENDBRANCH   1  12
BRANCH   9  23
ATOM     23  C17 <0> d   1       1.478  -0.704   0.323  0.00  0.00    -0.020 A 
ATOM     24  C22 <0> d   1       2.674   0.004   0.225  0.00  0.00     0.012 A 
ATOM     25  C21 <0> d   1       2.662   1.383   0.267  0.00  0.00     0.001 A 
ATOM     26  C20 <0> d   1       1.465   2.063   0.406  0.00  0.00     0.000 A 
ATOM     27  C19 <0> d   1       0.275   1.365   0.504  0.00  0.00     0.001 A 
ATOM     28  C18 <0> d   1       0.275  -0.014   0.463  0.00  0.00     0.012 A 
ENDBRANCH   9  23
TORSDOF 5
