REMARK  3 active torsions:
REMARK  status: ('A' for Active; 'I' for Inactive)
REMARK    1  A    between atoms: O1_2  and  C2_3 
REMARK    2  A    between atoms: C5_6  and  C8_10 
REMARK    3  A    between atoms: C9_11  and  C12_18 
ROOT
ATOM      1  C8  <0> d   1      -4.972  -2.599  -0.046  0.00  0.00     0.085 A 
ATOM      2  C9  <0> d   1      -6.208  -1.836   0.152  0.00  0.00     0.019 A 
ATOM      3  C10 <0> d   1      -7.387  -2.526   0.233  0.00  0.00     0.105 A 
ATOM      4  N1  <0> d   1      -7.368  -3.882   0.128  0.00  0.00    -0.341 N 
ATOM      5  H1  <0> d   1      -8.200  -4.376   0.185  0.00  0.00     0.167 HD
ATOM      6  C11 <0> d   1      -6.215  -4.548  -0.052  0.00  0.00     0.198 A 
ATOM      7  S1  <0> d   1      -6.255  -6.255  -0.177  0.00  0.00    -0.039 SA
ATOM      8  N2  <0> d   1      -5.045  -3.922  -0.143  0.00  0.00    -0.219 NA
ENDROOT
BRANCH   1   9
ATOM      9  C5  <0> d   1      -3.671  -1.910  -0.141  0.00  0.00     0.030 A 
ATOM     10  C4  <0> d   1      -2.950  -1.934  -1.338  0.00  0.00     0.019 A 
ATOM     11  C3  <0> d   1      -1.737  -1.289  -1.423  0.00  0.00     0.038 A 
ATOM     12  C2  <0> d   1      -1.225  -0.612  -0.320  0.00  0.00     0.070 A 
ATOM     13  C7  <0> d   1      -1.931  -0.586   0.874  0.00  0.00     0.077 A 
ATOM     14  C6  <0> d   1      -3.154  -1.227   0.970  0.00  0.00     0.122 A 
ATOM     15  O2  <0> d   1      -3.848  -1.198   2.136  0.00  0.00    -0.191 OA
BRANCH  12  16
ATOM     16  O1  <0> d   1      -0.028   0.022  -0.412  0.00  0.00    -0.356 OA
ATOM     17  C1  <0> d   1       0.645  -0.043  -1.671  0.00  0.00     0.210 C 
ENDBRANCH  12  16
ENDBRANCH   1   9
BRANCH   2  18
ATOM     18  C12 <0> d   1      -6.182  -0.358   0.261  0.00  0.00    -0.022 A 
ATOM     19  C17 <0> d   1      -6.529   0.261   1.461  0.00  0.00     0.012 A 
ATOM     20  C16 <0> d   1      -6.496   1.638   1.558  0.00  0.00     0.001 A 
ATOM     21  C15 <0> d   1      -6.131   2.403   0.465  0.00  0.00     0.000 A 
ATOM     22  C14 <0> d   1      -5.792   1.794  -0.730  0.00  0.00     0.001 A 
ATOM     23  C13 <0> d   1      -5.815   0.418  -0.837  0.00  0.00     0.012 A 
ENDBRANCH   2  18
TORSDOF 3
