REMARK  5 active torsions:
REMARK  status: ('A' for Active; 'I' for Inactive)
REMARK    1  A    between atoms: N1_2  and  C3_4 
REMARK    2  A    between atoms: C3_4  and  C4_5 
REMARK    3  A    between atoms: C11_13  and  C12_14 
REMARK    4  A    between atoms: C13_15  and  C14_16 
REMARK    5  A    between atoms: C19_21  and  O2_22 
ROOT
ATOM      1  C4  <0> d   1       2.137  -0.060  -1.158  0.00  0.00     0.039 A 
ATOM      2  C5  <0> d   1       2.525   1.160  -1.690  0.00  0.00     0.118 A 
ATOM      3  C6  <0> d   1       3.859   1.556  -1.651  0.00  0.00     0.041 A 
ATOM      4  C7  <0> d   1       4.802   0.744  -1.086  0.00  0.00     0.021 A 
ATOM      5  C8  <0> d   1       4.426  -0.485  -0.546  0.00  0.00     0.051 A 
ATOM      6  C9  <0> d   1       3.081  -0.893  -0.575  0.00  0.00     0.101 A 
ATOM      7  O1  <0> d   1       2.981  -2.106   0.011  0.00  0.00    -0.305 OA
ATOM      8  C10 <0> d   1       4.185  -2.547   0.444  0.00  0.00     0.127 A 
ATOM      9  C11 <0> d   1       4.419  -3.734   1.077  0.00  0.00     0.041 C 
ATOM     10  C21 <0> d   1       5.167  -1.571   0.118  0.00  0.00     0.218 A 
ATOM     11  O3  <0> d   1       6.363  -1.618   0.350  0.00  0.00    -0.284 OA
ATOM     12  O4  <0> d   1       1.597   1.974  -2.253  0.00  0.00    -0.191 OA
ENDROOT
BRANCH   9  13
ATOM     13  C12 <0> d   1       3.355  -4.619   1.329  0.00  0.00     0.004 C 
ATOM     14  C13 <0> d   1       3.587  -5.798   1.957  0.00  0.00     0.014 C 
BRANCH  14  15
ATOM     15  C14 <0> d   1       2.477  -6.721   2.220  0.00  0.00    -0.003 A 
ATOM     16  C19 <0> d   1       2.712  -7.944   2.871  0.00  0.00     0.078 A 
ATOM     17  C18 <0> d   1       1.655  -8.804   3.118  0.00  0.00     0.037 A 
ATOM     18  C17 <0> d   1       0.377  -8.465   2.717  0.00  0.00     0.003 A 
ATOM     19  C16 <0> d   1       0.139  -7.263   2.070  0.00  0.00     0.001 A 
ATOM     20  C15 <0> d   1       1.176  -6.391   1.819  0.00  0.00     0.014 A 
BRANCH  16  21
ATOM     21  O2  <0> d   1       3.969  -8.279   3.259  0.00  0.00    -0.355 OA
ATOM     22  C20 <0> d   1       4.131  -9.538   3.915  0.00  0.00     0.210 C 
ENDBRANCH  16  21
ENDBRANCH  14  15
ENDBRANCH   9  13
BRANCH   1  23
ATOM     23  C3  <0> d   1       0.690  -0.478  -1.207  0.00  0.00     0.278 C 
BRANCH  23  24
ATOM     24  N1  <0> d   1       0.002  -0.004   0.002  0.00  0.00    -0.075 N 
ATOM     25  C1  <0> d   1      -0.018   1.465   0.010  0.00  0.00     0.269 C 
ATOM     26  C2  <0> d   1      -1.376  -0.512   0.012  0.00  0.00     0.269 C 
ATOM     27  H21 <0> d   1       0.490  -0.338   0.820  0.00  0.00     0.279 HD
ENDBRANCH  23  24
ENDBRANCH   1  23
TORSDOF 5
