REMARK  4 active torsions:
REMARK  status: ('A' for Active; 'I' for Inactive)
REMARK    1  A    between atoms: C2_2  and  C3_3 
REMARK    2  A    between atoms: C9_9  and  C12_14 
REMARK    3  A    between atoms: C12_14  and  N1_15 
REMARK    4  A    between atoms: N2_18  and  C17_21 
ROOT
ATOM      1  C3  <0> d   1      -4.935   1.774  -1.622  0.00  0.00    -0.058 A 
ATOM      2  C4  <0> d   1      -5.072   0.394  -1.665  0.00  0.00     0.010 A 
ATOM      3  C5  <0> d   1      -4.078  -0.428  -1.177  0.00  0.00     0.039 A 
ATOM      4  C6  <0> d   1      -2.926   0.129  -0.635  0.00  0.00     0.090 A 
ATOM      5  C7  <0> d   1      -2.791   1.528  -0.593  0.00  0.00     0.006 A 
ATOM      6  C8  <0> d   1      -3.811   2.343  -1.093  0.00  0.00     0.022 A 
ATOM      7  C9  <0> d   1      -1.569   2.107  -0.025  0.00  0.00    -0.014 A 
ATOM      8  C10 <0> d   1      -0.619   1.261   0.447  0.00  0.00     0.092 A 
ATOM      9  C11 <0> d   1      -0.821  -0.134   0.373  0.00  0.00     0.288 A 
ATOM     10  O1  <0> d   1       0.041  -0.882   0.796  0.00  0.00    -0.260 OA
ATOM     11  O2  <0> d   1      -1.940  -0.657  -0.153  0.00  0.00    -0.275 OA
ENDROOT
BRANCH   7  12
ATOM     12  C12 <0> d   1      -1.379   3.600   0.041  0.00  0.00     0.274 C 
BRANCH  12  13
ATOM     13  N1  <0> d   1      -1.063   4.114  -1.298  0.00  0.00    -0.064 N 
ATOM     14  C16 <0> d   1      -1.238   5.572  -1.358  0.00  0.00     0.265 C 
ATOM     15  C15 <0> d   1      -0.976   6.056  -2.786  0.00  0.00     0.300 C 
ATOM     16  N2  <0> d   1       0.385   5.674  -3.189  0.00  0.00     0.091 N 
ATOM     17  C14 <0> d   1       0.559   4.216  -3.129  0.00  0.00     0.300 C 
ATOM     18  C13 <0> d   1       0.298   3.732  -1.701  0.00  0.00     0.265 C 
ATOM     19  H25 <0> d   1      -1.768   3.658  -2.009  0.00  0.00     0.280 HD
BRANCH  16  20
ATOM     20  C17 <0> d   1       0.701   6.188  -4.528  0.00  0.00     0.268 C 
ATOM     21  C18 <0> d   1       2.191   5.991  -4.811  0.00  0.00     0.037 C 
ENDBRANCH  16  20
ENDBRANCH  12  13
ENDBRANCH   7  12
BRANCH   1  22
ATOM     22  C2  <0> d   1      -6.035   2.652  -2.161  0.00  0.00     0.034 C 
ATOM     23  C1  <0> d   1      -7.029   2.970  -1.042  0.00  0.00     0.010 C 
ENDBRANCH   1  22
TORSDOF 4
