REMARK  4 active torsions:
REMARK  status: ('A' for Active; 'I' for Inactive)
REMARK    1  A    between atoms: N2_5  and  C6_8 
REMARK    2  A    between atoms: C6_8  and  C7_9 
REMARK    3  A    between atoms: C8_10  and  O5_29 
REMARK    4  A    between atoms: C14_17  and  C15_18 
ROOT
ATOM      1  C7  <0> d   1      -4.824   2.212   0.079  0.00  0.00     0.038 A 
ATOM      2  C8  <0> d   1      -5.658   3.317   0.024  0.00  0.00     0.076 A 
ATOM      3  C9  <0> d   1      -5.127   4.600  -0.077  0.00  0.00     0.038 A 
ATOM      4  C10 <0> d   1      -3.774   4.781  -0.123  0.00  0.00     0.021 A 
ATOM      5  C11 <0> d   1      -2.922   3.678  -0.068  0.00  0.00     0.051 A 
ATOM      6  C12 <0> d   1      -3.445   2.378   0.033  0.00  0.00     0.101 A 
ATOM      7  O1  <0> d   1      -2.436   1.482   0.064  0.00  0.00    -0.305 OA
ATOM      8  C13 <0> d   1      -1.225   2.085  -0.002  0.00  0.00     0.127 A 
ATOM      9  C14 <0> d   1      -0.018   1.464   0.010  0.00  0.00     0.053 C 
ATOM     10  C22 <0> d   1      -1.455   3.534  -0.095  0.00  0.00     0.218 A 
ATOM     11  O4  <0> d   1      -0.620   4.418  -0.176  0.00  0.00    -0.284 OA
ENDROOT
BRANCH   9  12
ATOM     12  C15 <0> d   1       0.053  -0.002  -0.008  0.00  0.00    -0.031 A 
ATOM     13  C20 <0> d   1       1.292  -0.644  -0.131  0.00  0.00     0.051 A 
ATOM     14  C19 <0> d   1       1.354  -2.023  -0.142  0.00  0.00     0.105 A 
ATOM     15  C18 <0> d   1       0.182  -2.776  -0.042  0.00  0.00     0.105 A 
ATOM     16  O2  <0> d   1       2.413  -2.879  -0.244  0.00  0.00    -0.323 OA
ATOM     17  C17 <0> d   1      -1.048  -2.139   0.075  0.00  0.00     0.040 A 
ATOM     18  O3  <0> d   1       0.510  -4.099  -0.082  0.00  0.00    -0.323 OA
ATOM     19  C16 <0> d   1      -1.118  -0.764   0.092  0.00  0.00     0.014 A 
ATOM     20  C21 <0> d   1       1.920  -4.155   0.205  0.00  0.00     0.352 C 
ENDBRANCH   9  12
BRANCH   1  21
ATOM     21  C6  <0> d   1      -5.412   0.828   0.188  0.00  0.00     0.317 C 
BRANCH  21  22
ATOM     22  N2  <0> d   1      -5.569   0.474   1.605  0.00  0.00     0.096 N 
ATOM     23  C3  <0> d   1      -6.353  -0.760   1.756  0.00  0.00     0.300 C 
ATOM     24  C2  <0> d   1      -6.561  -1.051   3.244  0.00  0.00     0.264 C 
ATOM     25  N1  <0> d   1      -5.254  -1.178   3.903  0.00  0.00    -0.072 N 
ATOM     26  C1  <0> d   1      -5.411  -1.532   5.320  0.00  0.00     0.269 C 
ATOM     27  C5  <0> d   1      -4.470   0.056   3.752  0.00  0.00     0.264 C 
ATOM     28  H23 <0> d   1      -4.702  -1.992   3.411  0.00  0.00     0.279 HD
ATOM     29  C4  <0> d   1      -4.262   0.347   2.264  0.00  0.00     0.300 C 
ENDBRANCH  21  22
ENDBRANCH   1  21
BRANCH   2  30
ATOM     30  O5  <0> d   1      -7.004   3.147   0.069  0.00  0.00    -0.360 OA
ATOM     31  H22 <0> d   1      -7.670   4.021   0.026  0.00  0.00     0.217 HD
ENDBRANCH   2  30
TORSDOF 4
