REMARK  8 active torsions:
REMARK  status: ('A' for Active; 'I' for Inactive)
REMARK    1  A    between atoms: C3_3  and  C19_26 
REMARK    2  A    between atoms: C4_4  and  C5_8 
REMARK    3  A    between atoms: C8_11  and  O2_15 
REMARK    4  A    between atoms: C10_13  and  O1_14 
REMARK    5  A    between atoms: O2_15  and  C11_16 
REMARK    6  A    between atoms: C11_16  and  C12_17 
REMARK    7  A    between atoms: C12_17  and  N3_18 
REMARK    8  A    between atoms: C22_29  and  O4_32 
ROOT
ATOM      1  C5  <0> d   1       0.248  -3.213  -1.685  0.00  0.00     0.029 A 
ATOM      2  C6  <0> d   1       0.354  -2.964  -3.052  0.00  0.00     0.019 A 
ATOM      3  C7  <0> d   1       0.473  -4.015  -3.937  0.00  0.00     0.038 A 
ATOM      4  C8  <0> d   1       0.488  -5.323  -3.469  0.00  0.00     0.071 A 
ATOM      5  C9  <0> d   1       0.383  -5.579  -2.110  0.00  0.00     0.074 A 
ATOM      6  C10 <0> d   1       0.269  -4.530  -1.214  0.00  0.00     0.081 A 
ENDROOT
BRANCH   1   7
ATOM      7  C4  <0> d   1       0.121  -2.084  -0.732  0.00  0.00     0.103 A 
ATOM      8  C3  <0> d   1      -0.761  -0.982  -0.856  0.00  0.00     0.029 A 
ATOM      9  C2  <0> d   1      -0.565  -0.176   0.226  0.00  0.00     0.037 A 
ATOM     10  C1  <0> d   1      -1.287   1.114   0.514  0.00  0.00     0.070 C 
ATOM     11  N2  <0> d   1       0.396  -0.737   0.990  0.00  0.00    -0.281 N 
ATOM     12  N1  <0> d   1       0.807  -1.928   0.380  0.00  0.00    -0.173 NA
ATOM     13  H1  <0> d   1       0.741  -0.377   1.821  0.00  0.00     0.189 HD
BRANCH   8  14
ATOM     14  C19 <0> d   1      -1.724  -0.748  -1.960  0.00  0.00    -0.021 A 
ATOM     15  C24 <0> d   1      -1.543   0.327  -2.829  0.00  0.00     0.015 A 
ATOM     16  C23 <0> d   1      -2.436   0.537  -3.859  0.00  0.00     0.037 A 
ATOM     17  C22 <0> d   1      -3.521  -0.313  -4.023  0.00  0.00     0.068 A 
ATOM     18  C21 <0> d   1      -3.707  -1.380  -3.156  0.00  0.00     0.037 A 
ATOM     19  C20 <0> d   1      -2.814  -1.600  -2.128  0.00  0.00     0.015 A 
BRANCH  17  20
ATOM     20  O4  <0> d   1      -4.402  -0.099  -5.036  0.00  0.00    -0.356 OA
ATOM     21  C25 <0> d   1      -4.150   1.018  -5.891  0.00  0.00     0.210 C 
ENDBRANCH  17  20
ENDBRANCH   8  14
ENDBRANCH   1   7
BRANCH   6  22
ATOM     22  O1  <0> d   1       0.172  -4.779   0.118  0.00  0.00    -0.360 OA
ATOM     23  H10 <0> d   1      -0.735  -4.890   0.432  0.00  0.00     0.217 HD
ENDBRANCH   6  22
BRANCH   4  24
ATOM     24  O2  <0> d   1       0.605  -6.354  -4.346  0.00  0.00    -0.349 OA
BRANCH  24  25
ATOM     25  C11 <0> d   1       0.708  -6.019  -5.731  0.00  0.00     0.206 C 
BRANCH  25  26
ATOM     26  C12 <0> d   1       0.832  -7.301  -6.558  0.00  0.00     0.299 C 
BRANCH  26  27
ATOM     27  N3  <0> d   1      -0.406  -8.082  -6.438  0.00  0.00     0.095 N 
ATOM     28  C16 <0> d   1      -0.242  -9.423  -7.019  0.00  0.00     0.303 C 
ATOM     29  C15 <0> d   1      -1.533 -10.221  -6.820  0.00  0.00     0.146 C 
ATOM     30  O3  <0> d   1      -2.625  -9.507  -7.406  0.00  0.00    -0.378 OA
ATOM     31  C17 <0> d   1      -1.398 -11.589  -7.492  0.00  0.00     0.041 C 
ATOM     32  C14 <0> d   1      -2.814  -8.197  -6.863  0.00  0.00     0.146 C 
ATOM     33  C13 <0> d   1      -1.536  -7.378  -7.063  0.00  0.00     0.303 C 
ATOM     34  C18 <0> d   1      -3.978  -7.510  -7.579  0.00  0.00     0.041 C 
ENDBRANCH  26  27
ENDBRANCH  25  26
ENDBRANCH  24  25
ENDBRANCH   4  24
TORSDOF 8
