REMARK  2 active torsions:
REMARK  status: ('A' for Active; 'I' for Inactive)
REMARK    1  A    between atoms: N2_5  and  C6_8 
REMARK    2  A    between atoms: C6_8  and  C7_9 
ROOT
ATOM      1  C7  <0> d   1       2.097  -4.553   1.057  0.00  0.00    -0.014 A 
ATOM      2  C8  <0> d   1       1.545  -4.878   2.254  0.00  0.00     0.092 A 
ATOM      3  C9  <0> d   1       2.363  -5.369   3.293  0.00  0.00     0.288 A 
ATOM      4  O1  <0> d   1       1.856  -5.657   4.362  0.00  0.00    -0.260 OA
ATOM      5  O2  <0> d   1       3.686  -5.528   3.134  0.00  0.00    -0.275 OA
ATOM      6  C10 <0> d   1       4.298  -5.224   1.969  0.00  0.00     0.090 A 
ATOM      7  C11 <0> d   1       3.542  -4.734   0.890  0.00  0.00     0.006 A 
ATOM      8  C12 <0> d   1       4.173  -4.424  -0.317  0.00  0.00     0.022 A 
ATOM      9  C13 <0> d   1       5.535  -4.605  -0.447  0.00  0.00    -0.051 A 
ATOM     10  C14 <0> d   1       6.279  -5.095   0.617  0.00  0.00    -0.049 A 
ATOM     11  C15 <0> d   1       5.666  -5.396   1.819  0.00  0.00     0.046 A 
ATOM     12  C16 <0> d   1       7.735  -5.198   0.214  0.00  0.00     0.039 C 
ATOM     13  C17 <0> d   1       7.733  -5.141  -1.328  0.00  0.00     0.009 C 
ATOM     14  C18 <0> d   1       6.444  -4.349  -1.631  0.00  0.00     0.039 C 
ENDROOT
BRANCH   1  15
ATOM     15  C6  <0> d   1       1.247  -4.025  -0.070  0.00  0.00     0.274 C 
BRANCH  15  16
ATOM     16  N2  <0> d   1       1.282  -2.557  -0.064  0.00  0.00    -0.064 N 
ATOM     17  C3  <0> d   1       0.553  -2.045  -1.232  0.00  0.00     0.265 C 
ATOM     18  C2  <0> d   1       0.605  -0.516  -1.237  0.00  0.00     0.299 C 
ATOM     19  N1  <0> d   1       0.002  -0.004   0.002  0.00  0.00     0.087 N 
ATOM     20  C1  <0> d   1      -0.018   1.465   0.010  0.00  0.00     0.310 C 
ATOM     21  C5  <0> d   1       0.707  -0.528   1.181  0.00  0.00     0.299 C 
ATOM     22  C4  <0> d   1       0.653  -2.057   1.165  0.00  0.00     0.265 C 
ATOM     23  H23 <0> d   1       2.241  -2.244  -0.103  0.00  0.00     0.280 HD
ENDBRANCH  15  16
ENDBRANCH   1  15
TORSDOF 2
