REMARK  11 active torsions:
REMARK  status: ('A' for Active; 'I' for Inactive)
REMARK    1  A    between atoms: O1_2  and  C2_3 
REMARK    2  A    between atoms: C2_3  and  C3_4 
REMARK    3  A    between atoms: C3_4  and  N1_5 
REMARK    4  A    between atoms: N1_5  and  C4_6 
REMARK    5  A    between atoms: N1_5  and  C7_10 
REMARK    6  A    between atoms: C4_6  and  C5_7 
REMARK    7  A    between atoms: C5_7  and  O2_8 
REMARK    8  A    between atoms: C7_10  and  C8_11 
REMARK    9  A    between atoms: C9_12  and  O6_30 
REMARK   10  A    between atoms: C15_19  and  C17_22 
REMARK   11  A    between atoms: C20_25  and  O5_28 
ROOT
ATOM      1  C8  <0> d   1      -1.029  -0.173  -0.542  0.00  0.00     0.038 A 
ATOM      2  C9  <0> d   1       0.167   0.388  -0.126  0.00  0.00     0.076 A 
ATOM      3  C10 <0> d   1       0.502   1.691  -0.485  0.00  0.00     0.038 A 
ATOM      4  C11 <0> d   1      -0.346   2.433  -1.258  0.00  0.00     0.021 A 
ATOM      5  C12 <0> d   1      -1.552   1.880  -1.686  0.00  0.00     0.050 A 
ATOM      6  C13 <0> d   1      -1.902   0.566  -1.329  0.00  0.00     0.100 A 
ATOM      7  O3  <0> d   1      -3.073   0.039  -1.736  0.00  0.00    -0.320 OA
ATOM      8  C14 <0> d   1      -3.789   0.592  -2.716  0.00  0.00     0.159 C 
ATOM      9  C15 <0> d   1      -3.574   1.858  -3.160  0.00  0.00     0.048 C 
ATOM     10  C16 <0> d   1      -2.493   2.643  -2.528  0.00  0.00     0.197 C 
ATOM     11  O4  <0> d   1      -2.377   3.844  -2.702  0.00  0.00    -0.286 OA
ENDROOT
BRANCH   1  12
ATOM     12  C7  <0> d   1      -1.379  -1.585  -0.146  0.00  0.00     0.317 C 
BRANCH  12  13
ATOM     13  N1  <0> d   1      -0.702  -2.528  -1.046  0.00  0.00     0.097 N 
BRANCH  13  14
ATOM     14  C3  <0> d   1      -0.953  -3.917  -0.639  0.00  0.00     0.299 C 
BRANCH  14  15
ATOM     15  C2  <0> d   1      -0.145  -4.233   0.621  0.00  0.00     0.197 C 
BRANCH  15  16
ATOM     16  O1  <0> d   1      -0.671  -3.490   1.723  0.00  0.00    -0.394 OA
ATOM     17  C1  <0> d   1       0.081  -3.630   2.930  0.00  0.00     0.201 C 
ENDBRANCH  15  16
ENDBRANCH  14  15
ENDBRANCH  13  14
BRANCH  13  18
ATOM     18  C4  <0> d   1      -1.107  -2.307  -2.441  0.00  0.00     0.299 C 
BRANCH  18  19
ATOM     19  C5  <0> d   1      -0.023  -2.843  -3.378  0.00  0.00     0.197 C 
BRANCH  19  20
ATOM     20  O2  <0> d   1       0.022  -4.268  -3.289  0.00  0.00    -0.394 OA
ATOM     21  C6  <0> d   1       1.007  -4.873  -4.129  0.00  0.00     0.201 C 
ENDBRANCH  19  20
ENDBRANCH  18  19
ENDBRANCH  13  18
ENDBRANCH  12  13
ENDBRANCH   1  12
BRANCH   2  22
ATOM     22  O6  <0> d   1       1.020  -0.339   0.640  0.00  0.00    -0.360 OA
ATOM     23  H27 <0> d   1       1.711  -0.792   0.137  0.00  0.00     0.217 HD
ENDBRANCH   2  22
BRANCH   9  24
ATOM     24  C17 <0> d   1      -4.407   2.439  -4.241  0.00  0.00    -0.020 A 
ATOM     25  C22 <0> d   1      -5.767   2.660  -4.033  0.00  0.00     0.015 A 
ATOM     26  C21 <0> d   1      -6.537   3.207  -5.038  0.00  0.00     0.037 A 
ATOM     27  C20 <0> d   1      -5.962   3.525  -6.260  0.00  0.00     0.068 A 
ATOM     28  C19 <0> d   1      -4.609   3.301  -6.473  0.00  0.00     0.037 A 
ATOM     29  C18 <0> d   1      -3.832   2.760  -5.470  0.00  0.00     0.015 A 
BRANCH  27  30
ATOM     30  O5  <0> d   1      -6.725   4.058  -7.250  0.00  0.00    -0.356 OA
ATOM     31  C23 <0> d   1      -8.110   4.263  -6.964  0.00  0.00     0.210 C 
ENDBRANCH  27  30
ENDBRANCH   9  24
TORSDOF 11
