REMARK  3 active torsions:
REMARK  status: ('A' for Active; 'I' for Inactive)
REMARK    1  A    between atoms: C6_6  and  C11_13 
REMARK    2  A    between atoms: C11_13  and  N1_14 
REMARK    3  A    between atoms: N2_17  and  C16_20 
ROOT
ATOM      1  N1  <0> d   1       0.600   7.763  -0.986  0.00  0.00    -0.065 N 
ATOM      2  C12 <0> d   1       1.363   7.181   0.127  0.00  0.00     0.250 C 
ATOM      3  C13 <0> d   1       1.250   5.655   0.076  0.00  0.00     0.125 C 
ATOM      4  N2  <0> d   1      -0.166   5.269   0.153  0.00  0.00    -0.265 NA
ATOM      5  C14 <0> d   1      -0.929   5.852  -0.959  0.00  0.00     0.125 C 
ATOM      6  C15 <0> d   1      -0.816   7.377  -0.909  0.00  0.00     0.250 C 
ATOM      7  H22 <0> d   1       1.011   7.364  -1.925  0.00  0.00     0.280 HD
ENDROOT
BRANCH   1   8
ATOM      8  C11 <0> d   1       0.746   9.225  -1.016  0.00  0.00     0.274 C 
BRANCH   8   9
ATOM      9  C6  <0> d   1       0.291   9.747  -2.354  0.00  0.00    -0.014 A 
ATOM     10  C5  <0> d   1       1.122   9.580  -3.550  0.00  0.00     0.006 A 
ATOM     11  C4  <0> d   1       2.354   8.921  -3.487  0.00  0.00     0.015 A 
ATOM     12  C9  <0> d   1       0.655  10.078  -4.780  0.00  0.00     0.090 A 
ATOM     13  C3  <0> d   1       3.103   8.775  -4.620  0.00  0.00     0.007 A 
ATOM     14  C2  <0> d   1       2.648   9.270  -5.834  0.00  0.00    -0.059 A 
ATOM     15  C1  <0> d   1       3.490   9.097  -7.072  0.00  0.00     0.048 C 
ATOM     16  C10 <0> d   1       1.433   9.917  -5.919  0.00  0.00     0.045 A 
ATOM     17  O2  <0> d   1      -0.537  10.708  -4.840  0.00  0.00    -0.275 OA
ATOM     18  C8  <0> d   1      -1.300  10.871  -3.749  0.00  0.00     0.288 A 
ATOM     19  C7  <0> d   1      -0.897  10.391  -2.484  0.00  0.00     0.092 A 
ATOM     20  O1  <0> d   1      -2.369  11.446  -3.852  0.00  0.00    -0.260 OA
ENDBRANCH   8   9
ENDBRANCH   1   8
BRANCH   4  21
ATOM     21  C16 <0> d   1      -0.304   3.886   0.182  0.00  0.00     0.105 A 
ATOM     22  N3  <0> d   1       0.774   3.118   0.140  0.00  0.00    -0.249 NA
ATOM     23  C20 <0> d   1       0.687   1.802   0.166  0.00  0.00     0.118 A 
ATOM     24  C19 <0> d   1      -0.541   1.175   0.238  0.00  0.00     0.019 A 
ATOM     25  C18 <0> d   1      -1.696   1.944   0.278  0.00  0.00     0.005 A 
ATOM     26  C17 <0> d   1      -1.573   3.322   0.255  0.00  0.00     0.044 A 
ENDBRANCH   4  21
TORSDOF 3
