REMARK  4 active torsions:
REMARK  status: ('A' for Active; 'I' for Inactive)
REMARK    1  A    between atoms: C4_4  and  O3_26 
REMARK    2  A    between atoms: C6_6  and  C11_13 
REMARK    3  A    between atoms: C11_13  and  N1_14 
REMARK    4  A    between atoms: N2_17  and  C16_20 
ROOT
ATOM      1  C1  <0> d   1      -3.194  -5.337   2.316  0.00  0.00     0.048 C 
ATOM      2  C2  <0> d   1      -2.052  -4.556   1.718  0.00  0.00    -0.057 A 
ATOM      3  C3  <0> d   1      -0.786  -5.117   1.676  0.00  0.00     0.044 A 
ATOM      4  C4  <0> d   1       0.271  -4.412   1.130  0.00  0.00     0.079 A 
ATOM      5  C5  <0> d   1       0.052  -3.123   0.619  0.00  0.00     0.039 A 
ATOM      6  C6  <0> d   1       1.145  -2.347   0.033  0.00  0.00    -0.009 A 
ATOM      7  C7  <0> d   1       0.867  -1.106  -0.445  0.00  0.00     0.092 A 
ATOM      8  C8  <0> d   1      -0.448  -0.603  -0.366  0.00  0.00     0.288 A 
ATOM      9  O1  <0> d   1      -0.684   0.511  -0.797  0.00  0.00    -0.260 OA
ATOM     10  O2  <0> d   1      -1.446  -1.321   0.173  0.00  0.00    -0.275 OA
ATOM     11  C9  <0> d   1      -1.236  -2.561   0.665  0.00  0.00     0.093 A 
ATOM     12  C10 <0> d   1      -2.280  -3.289   1.218  0.00  0.00     0.045 A 
ENDROOT
BRANCH   6  13
ATOM     13  C11 <0> d   1       2.542  -2.909  -0.038  0.00  0.00     0.312 C 
BRANCH  13  14
ATOM     14  N1  <0> d   1       3.159  -2.856   1.294  0.00  0.00     0.095 N 
ATOM     15  C15 <0> d   1       4.367  -3.691   1.348  0.00  0.00     0.287 C 
ATOM     16  C14 <0> d   1       4.934  -3.673   2.770  0.00  0.00     0.126 C 
ATOM     17  N2  <0> d   1       5.237  -2.287   3.156  0.00  0.00    -0.280 NA
ATOM     18  C13 <0> d   1       4.029  -1.452   3.102  0.00  0.00     0.126 C 
ATOM     19  C12 <0> d   1       3.462  -1.471   1.680  0.00  0.00     0.287 C 
BRANCH  17  20
ATOM     20  C16 <0> d   1       5.824  -2.237   4.422  0.00  0.00     0.010 A 
ATOM     21  C21 <0> d   1       6.188  -1.015   4.973  0.00  0.00     0.024 A 
ATOM     22  C20 <0> d   1       6.767  -0.969   6.226  0.00  0.00     0.002 A 
ATOM     23  C19 <0> d   1       6.985  -2.138   6.932  0.00  0.00     0.000 A 
ATOM     24  C18 <0> d   1       6.624  -3.357   6.386  0.00  0.00     0.002 A 
ATOM     25  C17 <0> d   1       6.039  -3.409   5.136  0.00  0.00     0.024 A 
ENDBRANCH  17  20
ENDBRANCH  13  14
ENDBRANCH   6  13
BRANCH   4  26
ATOM     26  O3  <0> d   1       1.511  -4.962   1.089  0.00  0.00    -0.360 OA
ATOM     27  H22 <0> d   1       2.349  -4.398   0.654  0.00  0.00     0.217 HD
ENDBRANCH   4  26
TORSDOF 4
