REMARK  3 active torsions:
REMARK  status: ('A' for Active; 'I' for Inactive)
REMARK    1  A    between atoms: N1_2  and  C3_4 
REMARK    2  A    between atoms: C3_4  and  C4_5 
REMARK    3  A    between atoms: C11_13  and  C13_16 
ROOT
ATOM      1  C4  <0> d   1      -0.718   1.572   1.248  0.00  0.00     0.039 A 
ATOM      2  C5  <0> d   1      -0.361   2.781   1.821  0.00  0.00     0.118 A 
ATOM      3  C6  <0> d   1      -1.010   3.243   2.964  0.00  0.00     0.041 A 
ATOM      4  C7  <0> d   1      -2.001   2.502   3.541  0.00  0.00     0.021 A 
ATOM      5  C8  <0> d   1      -2.369   1.279   2.978  0.00  0.00     0.050 A 
ATOM      6  C9  <0> d   1      -1.724   0.806   1.822  0.00  0.00     0.100 A 
ATOM      7  O1  <0> d   1      -2.081  -0.375   1.280  0.00  0.00    -0.320 OA
ATOM      8  C10 <0> d   1      -3.040  -1.154   1.786  0.00  0.00     0.159 A 
ATOM      9  C11 <0> d   1      -3.743  -0.819   2.898  0.00  0.00     0.048 A 
ATOM     10  C12 <0> d   1      -3.435   0.453   3.573  0.00  0.00     0.197 A 
ATOM     11  O2  <0> d   1      -4.033   0.806   4.575  0.00  0.00    -0.286 OA
ATOM     12  O3  <0> d   1       0.627   3.524   1.261  0.00  0.00    -0.191 OA
ENDROOT
BRANCH   9  13
ATOM     13  C13 <0> d   1      -4.800  -1.717   3.424  0.00  0.00    -0.020 A 
ATOM     14  C18 <0> d   1      -5.785  -2.211   2.571  0.00  0.00     0.014 A 
ATOM     15  C17 <0> d   1      -6.766  -3.046   3.065  0.00  0.00     0.020 A 
ATOM     16  C16 <0> d   1      -6.773  -3.394   4.404  0.00  0.00     0.011 A 
ATOM     17  C15 <0> d   1      -5.796  -2.906   5.256  0.00  0.00     0.020 A 
ATOM     18 Br1  <0> d   1      -8.120  -4.539   5.074  0.00  0.00    -0.051 Br
ATOM     19  C14 <0> d   1      -4.808  -2.075   4.771  0.00  0.00     0.014 A 
ENDBRANCH   9  13
BRANCH   1  20
ATOM     20  C3  <0> d   1      -0.013   1.086   0.008  0.00  0.00     0.278 C 
BRANCH  20  21
ATOM     21  N1  <0> d   1      -0.723   1.572  -1.182  0.00  0.00    -0.075 N 
ATOM     22  C1  <0> d   1       0.059   1.323  -2.401  0.00  0.00     0.269 C 
ATOM     23  C2  <0> d   1      -2.059   0.969  -1.281  0.00  0.00     0.269 C 
ATOM     24  H16 <0> d   1      -0.850   2.660  -1.079  0.00  0.00     0.279 HD
ENDBRANCH  20  21
ENDBRANCH   1  20
TORSDOF 3
