REMARK  3 active torsions:
REMARK  status: ('A' for Active; 'I' for Inactive)
REMARK    1  A    between atoms: C4_4  and  C18_23 
REMARK    2  A    between atoms: C9_10  and  C10_11 
REMARK    3  A    between atoms: C18_23  and  N1_24 
ROOT
ATOM      1  C1  <0> d   1       4.504   3.020   0.982  0.00  0.00     0.021 A 
ATOM      2  C2  <0> d   1       4.889   4.310   1.217  0.00  0.00     0.041 A 
ATOM      3  C3  <0> d   1       3.946   5.334   1.207  0.00  0.00     0.118 A 
ATOM      4  C4  <0> d   1       2.611   5.060   0.959  0.00  0.00     0.041 A 
ATOM      5  C5  <0> d   1       2.203   3.754   0.719  0.00  0.00     0.101 A 
ATOM      6  C6  <0> d   1       3.163   2.730   0.732  0.00  0.00     0.051 A 
ATOM      7  C7  <0> d   1       2.438   1.478   0.449  0.00  0.00     0.218 A 
ATOM      8  O1  <0> d   1       2.898   0.351   0.369  0.00  0.00    -0.284 OA
ATOM      9  C8  <0> d   1       1.038   1.891   0.284  0.00  0.00     0.128 A 
ATOM     10  C9  <0> d   1      -0.013   1.076   0.008  0.00  0.00     0.055 C 
ATOM     11  O4  <0> d   1       0.985   3.234   0.451  0.00  0.00    -0.305 OA
ATOM     12  O6  <0> d   1       4.339   6.612   1.441  0.00  0.00    -0.191 OA
ENDROOT
BRANCH  10  13
ATOM     13  C10 <0> d   1      -1.374   1.621  -0.034  0.00  0.00     0.002 A 
ATOM     14  C15 <0> d   1      -2.483   0.762   0.053  0.00  0.00     0.090 A 
ATOM     15  C14 <0> d   1      -3.763   1.288   0.016  0.00  0.00     0.001 A 
ATOM     16  O2  <0> d   1      -2.287  -0.576   0.169  0.00  0.00    -0.325 OA
ATOM     17  C13 <0> d   1      -3.948   2.652  -0.109  0.00  0.00     0.031 A 
ATOM     18  C17 <0> d   1      -4.963   0.380   0.113  0.00  0.00     0.212 C 
ATOM     19  C12 <0> d   1      -2.858   3.505  -0.197  0.00  0.00     0.012 A 
ATOM     20  C11 <0> d   1      -1.576   3.002  -0.154  0.00  0.00     0.033 A 
ATOM     21 Br1  <0> d   1      -3.132   5.368  -0.368  0.00  0.00    -0.051 Br
ATOM     22  O3  <0> d   1      -4.558  -0.969  -0.141  0.00  0.00    -0.362 OA
ATOM     23  C16 <0> d   1      -3.401  -1.357   0.611  0.00  0.00     0.345 C 
ENDBRANCH  10  13
BRANCH   4  24
ATOM     24  C18 <0> d   1       1.601   6.179   0.951  0.00  0.00     0.317 C 
BRANCH  24  25
ATOM     25  N1  <0> d   1       1.060   6.360   2.304  0.00  0.00     0.097 N 
ATOM     26  C22 <0> d   1       0.254   7.587   2.390  0.00  0.00     0.299 C 
ATOM     27  C21 <0> d   1      -0.240   7.767   3.828  0.00  0.00     0.198 C 
ATOM     28  O5  <0> d   1      -0.977   6.607   4.222  0.00  0.00    -0.388 OA
ATOM     29  C20 <0> d   1      -0.223   5.394   4.152  0.00  0.00     0.198 C 
ATOM     30  C19 <0> d   1       0.272   5.189   2.717  0.00  0.00     0.299 C 
ENDBRANCH  24  25
ENDBRANCH   4  24
TORSDOF 3
