REMARK  4 active torsions:
REMARK  status: ('A' for Active; 'I' for Inactive)
REMARK    1  A    between atoms: N1_6  and  C7_8 
REMARK    2  A    between atoms: C7_8  and  C8_9 
REMARK    3  A    between atoms: C9_10  and  O3_30 
REMARK    4  A    between atoms: C15_17  and  C16_18 
ROOT
ATOM      1  C8  <0> d   1       1.774  -1.772  -0.024  0.00  0.00     0.036 A 
ATOM      2  C9  <0> d   1       3.145  -1.975  -0.037  0.00  0.00     0.076 A 
ATOM      3  C10 <0> d   1       4.020  -0.893  -0.039  0.00  0.00     0.038 A 
ATOM      4  C11 <0> d   1       3.535   0.385  -0.029  0.00  0.00     0.021 A 
ATOM      5  C12 <0> d   1       2.158   0.605  -0.015  0.00  0.00     0.051 A 
ATOM      6  C13 <0> d   1       1.266  -0.480  -0.013  0.00  0.00     0.101 A 
ATOM      7  O1  <0> d   1       0.002  -0.004   0.002  0.00  0.00    -0.305 OA
ATOM      8  C14 <0> d   1      -0.016   1.350   0.009  0.00  0.00     0.128 A 
ATOM      9  C15 <0> d   1      -1.133   2.131   0.019  0.00  0.00     0.055 C 
ATOM     10  C25 <0> d   1       1.324   1.819  -0.001  0.00  0.00     0.218 A 
ATOM     11  O2  <0> d   1       1.704   2.978   0.001  0.00  0.00    -0.284 OA
ENDROOT
BRANCH   9  12
ATOM     12  C16 <0> d   1      -2.457   1.512   0.023  0.00  0.00    -0.005 A 
ATOM     13  C19 <0> d   1      -3.759   2.208   0.033  0.00  0.00     0.002 A 
ATOM     14  C18 <0> d   1      -4.736   1.199   0.032  0.00  0.00     0.045 A 
ATOM     15  C20 <0> d   1      -4.137   3.547   0.043  0.00  0.00     0.014 A 
ATOM     16  N2  <0> d   1      -4.084  -0.017   0.022  0.00  0.00    -0.360 N 
ATOM     17  C23 <0> d   1      -6.081   1.554   0.041  0.00  0.00     0.030 A 
ATOM     18  C17 <0> d   1      -2.740   0.164   0.011  0.00  0.00     0.103 A 
ATOM     19  C24 <0> d   1      -4.750  -1.322   0.018  0.00  0.00     0.156 C 
ATOM     20  C22 <0> d   1      -6.442   2.884   0.050  0.00  0.00     0.002 A 
ATOM     21  C21 <0> d   1      -5.475   3.878   0.051  0.00  0.00     0.001 A 
ENDBRANCH   9  12
BRANCH   1  22
ATOM     22  C7  <0> d   1       0.837  -2.952  -0.021  0.00  0.00     0.279 C 
BRANCH  22  23
ATOM     23  N1  <0> d   1       0.519  -3.329  -1.404  0.00  0.00    -0.066 N 
ATOM     24  C5  <0> d   1      -0.196  -4.610  -1.450  0.00  0.00     0.239 C 
ATOM     25  C4  <0> d   1      -0.381  -5.041  -2.907  0.00  0.00     0.008 C 
ATOM     26  C3  <0> d   1      -1.175  -3.966  -3.655  0.00  0.00     0.011 C 
ATOM     27  C26 <0> d   1       0.988  -5.218  -3.565  0.00  0.00     0.011 C 
ATOM     28  C2  <0> d   1      -0.433  -2.631  -3.551  0.00  0.00     0.008 C 
ATOM     29  C1  <0> d   1      -1.248  -1.538  -4.246  0.00  0.00     0.011 C 
ATOM     30  C6  <0> d   1      -0.246  -2.270  -2.076  0.00  0.00     0.239 C 
ATOM     31  H28 <0> d   1       1.467  -3.454  -1.948  0.00  0.00     0.280 HD
ENDBRANCH  22  23
ENDBRANCH   1  22
BRANCH   2  32
ATOM     32  O3  <0> d   1       3.638  -3.240  -0.048  0.00  0.00    -0.360 OA
ATOM     33  H29 <0> d   1       4.725  -3.406  -0.059  0.00  0.00     0.217 HD
ENDBRANCH   2  32
TORSDOF 4
