REMARK  6 active torsions:
REMARK  status: ('A' for Active; 'I' for Inactive)
REMARK    1  A    between atoms: C2_2  and  C4_4 
REMARK    2  A    between atoms: C10_10  and  C13_15 
REMARK    3  A    between atoms: C13_15  and  N1_16 
REMARK    4  A    between atoms: N2_19  and  C18_22 
REMARK    5  A    between atoms: C18_22  and  C19_23 
REMARK    6  A    between atoms: C20_24  and  C21_25 
ROOT
ATOM      1  N1  <0> d   1      -1.063   4.114  -1.298  0.00  0.00     0.096 N 
ATOM      2  C14 <0> d   1       0.298   3.732  -1.701  0.00  0.00     0.303 C 
ATOM      3  C15 <0> d   1       0.559   4.216  -3.129  0.00  0.00     0.303 C 
ATOM      4  N2  <0> d   1       0.385   5.674  -3.189  0.00  0.00     0.095 N 
ATOM      5  C16 <0> d   1      -0.976   6.056  -2.786  0.00  0.00     0.303 C 
ATOM      6  C17 <0> d   1      -1.238   5.572  -1.358  0.00  0.00     0.303 C 
ENDROOT
BRANCH   1   7
ATOM      7  C13 <0> d   1      -1.379   3.600   0.041  0.00  0.00     0.312 C 
BRANCH   7   8
ATOM      8  C10 <0> d   1      -1.569   2.107  -0.025  0.00  0.00    -0.011 A 
ATOM      9  C8  <0> d   1      -2.791   1.528  -0.593  0.00  0.00     0.007 A 
ATOM     10  C7  <0> d   1      -2.926   0.129  -0.635  0.00  0.00     0.090 A 
ATOM     11  C9  <0> d   1      -3.811   2.343  -1.093  0.00  0.00     0.022 A 
ATOM     12  C6  <0> d   1      -4.078  -0.428  -1.177  0.00  0.00     0.039 A 
ATOM     13  O2  <0> d   1      -1.940  -0.657  -0.153  0.00  0.00    -0.275 OA
ATOM     14  C5  <0> d   1      -5.072   0.394  -1.665  0.00  0.00     0.010 A 
ATOM     15  C4  <0> d   1      -4.935   1.774  -1.622  0.00  0.00    -0.054 A 
ATOM     16  C12 <0> d   1      -0.821  -0.134   0.373  0.00  0.00     0.288 A 
ATOM     17  C11 <0> d   1      -0.619   1.261   0.447  0.00  0.00     0.092 A 
ATOM     18  O1  <0> d   1       0.041  -0.882   0.796  0.00  0.00    -0.260 OA
BRANCH  15  19
ATOM     19  C2  <0> d   1      -6.035   2.652  -2.161  0.00  0.00     0.010 C 
ATOM     20  C1  <0> d   1      -6.251   2.345  -3.644  0.00  0.00     0.015 C 
ATOM     21  C3  <0> d   1      -7.328   2.381  -1.390  0.00  0.00     0.015 C 
ENDBRANCH  15  19
ENDBRANCH   7   8
ENDBRANCH   1   7
BRANCH   4  22
ATOM     22  C18 <0> d   1       0.701   6.188  -4.528  0.00  0.00     0.300 C 
BRANCH  22  23
ATOM     23  C19 <0> d   1       1.993   5.579  -5.008  0.00  0.00     0.004 C 
ATOM     24  C20 <0> d   1       2.034   4.937  -6.167  0.00  0.00     0.009 C 
BRANCH  24  25
ATOM     25  C21 <0> d   1       3.301   4.340  -6.637  0.00  0.00    -0.036 A 
ATOM     26  C26 <0> d   1       3.348   3.664  -7.857  0.00  0.00     0.011 A 
ATOM     27  C25 <0> d   1       4.534   3.108  -8.290  0.00  0.00     0.001 A 
ATOM     28  C24 <0> d   1       5.676   3.221  -7.518  0.00  0.00     0.000 A 
ATOM     29  C23 <0> d   1       5.637   3.889  -6.308  0.00  0.00     0.001 A 
ATOM     30  C22 <0> d   1       4.458   4.454  -5.866  0.00  0.00     0.011 A 
ENDBRANCH  24  25
ENDBRANCH  22  23
ENDBRANCH   4  22
TORSDOF 6
