REMARK  5 active torsions:
REMARK  status: ('A' for Active; 'I' for Inactive)
REMARK    1  A    between atoms: C3_3  and  C16_20 
REMARK    2  A    between atoms: C9_10  and  C11_13 
REMARK    3  A    between atoms: C11_13  and  N1_14 
REMARK    4  A    between atoms: C19_23  and  O5_28 
REMARK    5  A    between atoms: C20_24  and  O4_26 
ROOT
ATOM      1  C1  <0> d   1       1.880   0.141   2.106  0.00  0.00     0.077 C 
ATOM      2  C2  <0> d   1       2.832   0.253   0.944  0.00  0.00     0.065 A 
ATOM      3  C3  <0> d   1       2.474   1.014  -0.122  0.00  0.00     0.055 A 
ATOM      4  C4  <0> d   1       3.407   1.129  -1.256  0.00  0.00     0.198 A 
ATOM      5  O1  <0> d   1       3.141   1.801  -2.237  0.00  0.00    -0.286 OA
ATOM      6  C5  <0> d   1       4.678   0.391  -1.146  0.00  0.00     0.050 A 
ATOM      7  C6  <0> d   1       5.631   0.434  -2.165  0.00  0.00     0.021 A 
ATOM      8  C7  <0> d   1       6.799  -0.261  -2.031  0.00  0.00     0.041 A 
ATOM      9  C8  <0> d   1       7.042  -1.013  -0.883  0.00  0.00     0.118 A 
ATOM     10  C9  <0> d   1       6.107  -1.065   0.136  0.00  0.00     0.039 A 
ATOM     11  C10 <0> d   1       4.914  -0.364   0.016  0.00  0.00     0.100 A 
ATOM     12  O2  <0> d   1       3.994  -0.404   1.000  0.00  0.00    -0.313 OA
ATOM     13  O3  <0> d   1       8.207  -1.699  -0.764  0.00  0.00    -0.191 OA
ENDROOT
BRANCH   3  14
ATOM     14  C16 <0> d   1       1.170   1.721  -0.142  0.00  0.00    -0.017 A 
ATOM     15  C21 <0> d   1       1.131   3.114  -0.141  0.00  0.00     0.052 A 
ATOM     16  C20 <0> d   1      -0.087   3.770  -0.159  0.00  0.00     0.102 A 
ATOM     17  C19 <0> d   1      -1.271   3.037  -0.179  0.00  0.00     0.101 A 
ATOM     18  C18 <0> d   1      -1.231   1.651  -0.186  0.00  0.00     0.040 A 
ATOM     19  C17 <0> d   1      -0.018   0.993  -0.163  0.00  0.00     0.015 A 
BRANCH  16  20
ATOM     20  O4  <0> d   1      -0.128   5.129  -0.157  0.00  0.00    -0.353 OA
ATOM     21  C22 <0> d   1       1.125   5.816  -0.135  0.00  0.00     0.210 C 
ENDBRANCH  16  20
BRANCH  17  22
ATOM     22  O5  <0> d   1      -2.468   3.682  -0.197  0.00  0.00    -0.353 OA
ATOM     23  C23 <0> d   1      -3.643   2.869  -0.217  0.00  0.00     0.210 C 
ENDBRANCH  17  22
ENDBRANCH   3  14
BRANCH  10  24
ATOM     24  C11 <0> d   1       6.383  -1.881   1.373  0.00  0.00     0.279 C 
BRANCH  24  25
ATOM     25  N1  <0> d   1       7.200  -1.094   2.306  0.00  0.00    -0.067 N 
ATOM     26  C15 <0> d   1       7.408  -1.825   3.575  0.00  0.00     0.235 C 
ATOM     27  C14 <0> d   1       7.447  -0.775   4.700  0.00  0.00     0.029 C 
ATOM     28  C13 <0> d   1       7.218   0.581   3.995  0.00  0.00     0.029 C 
ATOM     29  C12 <0> d   1       6.517   0.172   2.676  0.00  0.00     0.235 C 
ATOM     30  H25 <0> d   1       8.152  -0.908   1.787  0.00  0.00     0.280 HD
ENDBRANCH  24  25
ENDBRANCH  10  24
TORSDOF 5
