REMARK  2 active torsions:
REMARK  status: ('A' for Active; 'I' for Inactive)
REMARK    1  A    between atoms: C6_6  and  C12_14 
REMARK    2  A    between atoms: C12_14  and  N1_15 
ROOT
ATOM      1  C1  <0> d   1      -0.020   3.683   0.017  0.00  0.00     0.049 C 
ATOM      2  C2  <0> d   1       0.281   2.206  -0.007  0.00  0.00    -0.053 A 
ATOM      3  C3  <0> d   1      -0.761   1.292   0.050  0.00  0.00     0.008 A 
ATOM      4  C4  <0> d   1      -0.508  -0.051   0.029  0.00  0.00     0.015 A 
ATOM      5  C5  <0> d   1       0.812  -0.506  -0.050  0.00  0.00     0.007 A 
ATOM      6  C6  <0> d   1       1.117  -1.940  -0.073  0.00  0.00    -0.014 A 
ATOM      7  C7  <0> d   1       2.419  -2.317  -0.149  0.00  0.00     0.092 A 
ATOM      8  C8  <0> d   1       3.432  -1.335  -0.204  0.00  0.00     0.288 A 
ATOM      9  O1  <0> d   1       4.596  -1.686  -0.273  0.00  0.00    -0.260 OA
ATOM     10  O2  <0> d   1       3.144  -0.024  -0.183  0.00  0.00    -0.274 OA
ATOM     11  C9  <0> d   1       1.871   0.417  -0.107  0.00  0.00     0.096 A 
ATOM     12  C10 <0> d   1       1.590   1.777  -0.086  0.00  0.00    -0.021 A 
ATOM     13  C11 <0> d   1       2.712   2.782  -0.146  0.00  0.00     0.052 C 
ENDROOT
BRANCH   6  14
ATOM     14  C12 <0> d   1       0.016  -2.967  -0.013  0.00  0.00     0.274 C 
BRANCH  14  15
ATOM     15  N1  <0> d   1      -0.513  -3.038   1.355  0.00  0.00    -0.064 N 
ATOM     16  C16 <0> d   1      -1.808  -3.732   1.384  0.00  0.00     0.265 C 
ATOM     17  C15 <0> d   1      -2.362  -3.714   2.811  0.00  0.00     0.299 C 
ATOM     18  N2  <0> d   1      -1.401  -4.362   3.714  0.00  0.00     0.087 N 
ATOM     19  C14 <0> d   1      -0.105  -3.669   3.686  0.00  0.00     0.299 C 
ATOM     20  C17 <0> d   1      -1.930  -4.433   5.083  0.00  0.00     0.310 C 
ATOM     21  C13 <0> d   1       0.448  -3.686   2.259  0.00  0.00     0.265 C 
ATOM     22  H23 <0> d   1      -0.671  -2.009   1.709  0.00  0.00     0.280 HD
ENDBRANCH  14  15
ENDBRANCH   6  14
TORSDOF 2
