REMARK  9 active torsions:
REMARK  status: ('A' for Active; 'I' for Inactive)
REMARK    1  A    between atoms: N1_4  and  C7_9 
REMARK    2  A    between atoms: C7_9  and  C8_10 
REMARK    3  A    between atoms: C8_10  and  O2_11 
REMARK    4  A    between atoms: O2_11  and  C9_12 
REMARK    5  A    between atoms: C12_15  and  C15_19 
REMARK    6  A    between atoms: C13_16  and  O3_18 
REMARK    7  A    between atoms: C16_20  and  C18_25 
REMARK    8  A    between atoms: C21_28  and  O5_33 
REMARK    9  A    between atoms: C22_29  and  O4_31 
ROOT
ATOM      1  C9  <0> d   1      -2.067  -6.102   0.840  0.00  0.00     0.071 A 
ATOM      2  C10 <0> d   1      -2.273  -6.711  -0.392  0.00  0.00     0.038 A 
ATOM      3  C11 <0> d   1      -2.134  -8.077  -0.521  0.00  0.00     0.019 A 
ATOM      4  C12 <0> d   1      -1.785  -8.850   0.585  0.00  0.00     0.029 A 
ATOM      5  C13 <0> d   1      -1.577  -8.236   1.824  0.00  0.00     0.081 A 
ATOM      6  C14 <0> d   1      -1.714  -6.864   1.944  0.00  0.00     0.074 A 
ENDROOT
BRANCH   4   7
ATOM      7  C15 <0> d   1      -1.635 -10.319   0.448  0.00  0.00     0.102 A 
ATOM      8  N3  <0> d   1      -0.625 -11.038   0.885  0.00  0.00    -0.174 NA
ATOM      9  N2  <0> d   1      -0.864 -12.379   0.562  0.00  0.00    -0.288 N 
ATOM     10  C17 <0> d   1      -2.043 -12.457  -0.091  0.00  0.00     0.124 A 
ATOM     11  H3  <0> d   1      -0.280 -13.126   0.769  0.00  0.00     0.188 HD
ATOM     12  C16 <0> d   1      -2.553 -11.197  -0.182  0.00  0.00     0.022 A 
BRANCH  12  13
ATOM     13  C18 <0> d   1      -3.836 -10.813  -0.822  0.00  0.00    -0.019 A 
ATOM     14  C23 <0> d   1      -4.096 -11.184  -2.140  0.00  0.00     0.052 A 
ATOM     15  C22 <0> d   1      -5.295 -10.830  -2.732  0.00  0.00     0.102 A 
ATOM     16  C21 <0> d   1      -6.235 -10.095  -2.014  0.00  0.00     0.101 A 
ATOM     17  C20 <0> d   1      -5.973  -9.722  -0.705  0.00  0.00     0.040 A 
ATOM     18  C19 <0> d   1      -4.779 -10.077  -0.108  0.00  0.00     0.015 A 
BRANCH  15  19
ATOM     19  O4  <0> d   1      -5.554 -11.195  -4.016  0.00  0.00    -0.353 OA
ATOM     20  C24 <0> d   1      -4.545 -11.948  -4.692  0.00  0.00     0.210 C 
ENDBRANCH  15  19
BRANCH  16  21
ATOM     21  O5  <0> d   1      -7.412  -9.743  -2.597  0.00  0.00    -0.353 OA
ATOM     22  C25 <0> d   1      -8.330  -8.990  -1.803  0.00  0.00     0.210 C 
ENDBRANCH  16  21
ENDBRANCH  12  13
ENDBRANCH   4   7
BRANCH   5  23
ATOM     23  O3  <0> d   1      -1.236  -8.984   2.906  0.00  0.00    -0.360 OA
ATOM     24  H21 <0> d   1      -0.283  -9.094   3.023  0.00  0.00     0.217 HD
ENDBRANCH   5  23
BRANCH   1  25
ATOM     25  O2  <0> d   1      -2.205  -4.756   0.961  0.00  0.00    -0.349 OA
BRANCH  25  26
ATOM     26  C8  <0> d   1      -2.571  -4.033  -0.216  0.00  0.00     0.206 C 
BRANCH  26  27
ATOM     27  C7  <0> d   1      -2.678  -2.543   0.114  0.00  0.00     0.299 C 
BRANCH  27  28
ATOM     28  N1  <0> d   1      -1.360  -2.034   0.515  0.00  0.00     0.095 N 
ATOM     29  C3  <0> d   1      -0.487  -1.851  -0.654  0.00  0.00     0.303 C 
ATOM     30  C2  <0> d   1       0.891  -1.378  -0.187  0.00  0.00     0.146 C 
ATOM     31  C1  <0> d   1       1.779  -1.109  -1.403  0.00  0.00     0.041 C 
ATOM     32  O1  <0> d   1       0.746  -0.175   0.573  0.00  0.00    -0.378 OA
ATOM     33  C5  <0> d   1      -0.098  -0.316   1.719  0.00  0.00     0.146 C 
ATOM     34  C4  <0> d   1      -1.487  -0.779   1.271  0.00  0.00     0.303 C 
ATOM     35  C6  <0> d   1       0.503  -1.352   2.671  0.00  0.00     0.041 C 
ENDBRANCH  27  28
ENDBRANCH  26  27
ENDBRANCH  25  26
ENDBRANCH   1  25
TORSDOF 9
