REMARK  6 active torsions:
REMARK  status: ('A' for Active; 'I' for Inactive)
REMARK    1  A    between atoms: C2_2  and  N1_3 
REMARK    2  A    between atoms: N2_6  and  C7_9 
REMARK    3  A    between atoms: C7_9  and  C8_10 
REMARK    4  A    between atoms: C9_11  and  O3_30 
REMARK    5  A    between atoms: C15_18  and  C16_19 
REMARK    6  A    between atoms: C19_22  and  C22_25 
ROOT
ATOM      1  C8  <0> d   1       1.599   3.243  -0.088  0.00  0.00     0.038 A 
ATOM      2  C9  <0> d   1       0.563   4.164  -0.090  0.00  0.00     0.076 A 
ATOM      3  C10 <0> d   1      -0.762   3.740  -0.070  0.00  0.00     0.038 A 
ATOM      4  C11 <0> d   1      -1.055   2.405  -0.043  0.00  0.00     0.021 A 
ATOM      5  C12 <0> d   1      -0.023   1.467  -0.046  0.00  0.00     0.051 A 
ATOM      6  C13 <0> d   1       1.318   1.883  -0.067  0.00  0.00     0.101 A 
ATOM      7  O1  <0> d   1       2.131   0.804  -0.060  0.00  0.00    -0.305 OA
ATOM      8  C14 <0> d   1       1.430  -0.354  -0.037  0.00  0.00     0.127 A 
ATOM      9  C15 <0> d   1       1.951  -1.606  -0.026  0.00  0.00     0.053 C 
ATOM     10  C25 <0> d   1      -0.001  -0.007  -0.026  0.00  0.00     0.218 A 
ATOM     11  O2  <0> d   1      -0.953  -0.767  -0.005  0.00  0.00    -0.284 OA
ENDROOT
BRANCH   9  12
ATOM     12  C16 <0> d   1       3.403  -1.799  -0.151  0.00  0.00    -0.033 A 
ATOM     13  C21 <0> d   1       4.262  -0.694  -0.154  0.00  0.00     0.012 A 
ATOM     14  C20 <0> d   1       5.622  -0.884  -0.272  0.00  0.00     0.008 A 
ATOM     15  C19 <0> d   1       6.139  -2.163  -0.388  0.00  0.00    -0.055 A 
ATOM     16  C18 <0> d   1       5.296  -3.261  -0.386  0.00  0.00     0.008 A 
ATOM     17  C17 <0> d   1       3.934  -3.089  -0.264  0.00  0.00     0.012 A 
BRANCH  15  18
ATOM     18  C22 <0> d   1       7.627  -2.361  -0.516  0.00  0.00     0.010 C 
ATOM     19  C23 <0> d   1       8.131  -3.215   0.649  0.00  0.00     0.015 C 
ATOM     20  C24 <0> d   1       7.935  -3.069  -1.837  0.00  0.00     0.015 C 
ENDBRANCH  15  18
ENDBRANCH   9  12
BRANCH   1  21
ATOM     21  C7  <0> d   1       3.029   3.717  -0.110  0.00  0.00     0.317 C 
BRANCH  21  22
ATOM     22  N2  <0> d   1       3.479   3.853  -1.502  0.00  0.00     0.096 N 
ATOM     23  C4  <0> d   1       4.779   4.534  -1.571  0.00  0.00     0.303 C 
ATOM     24  C3  <0> d   1       5.174   4.726  -3.037  0.00  0.00     0.302 C 
ATOM     25  N1  <0> d   1       5.232   3.416  -3.702  0.00  0.00     0.091 N 
ATOM     26  C6  <0> d   1       3.932   2.735  -3.632  0.00  0.00     0.302 C 
ATOM     27  C5  <0> d   1       3.538   2.543  -2.166  0.00  0.00     0.303 C 
BRANCH  25  28
ATOM     28  C2  <0> d   1       5.682   3.552  -5.093  0.00  0.00     0.268 C 
ATOM     29  C1  <0> d   1       5.495   2.219  -5.822  0.00  0.00     0.037 C 
ENDBRANCH  25  28
ENDBRANCH  21  22
ENDBRANCH   1  21
BRANCH   2  30
ATOM     30  O3  <0> d   1       0.844   5.492  -0.111  0.00  0.00    -0.360 OA
ATOM     31  H30 <0> d   1       0.026   6.227  -0.113  0.00  0.00     0.217 HD
ENDBRANCH   2  30
TORSDOF 6
