REMARK  7 active torsions:
REMARK  status: ('A' for Active; 'I' for Inactive)
REMARK    1  A    between atoms: C6_6  and  C7_7 
REMARK    2  A    between atoms: C14_16  and  O4_28 
REMARK    3  A    between atoms: C15_17  and  C16_18 
REMARK    4  A    between atoms: C16_18  and  N1_19 
REMARK    5  A    between atoms: N2_22  and  C21_25 
REMARK    6  A    between atoms: C21_25  and  C22_26 
REMARK    7  A    between atoms: C22_26  and  O3_27 
ROOT
ATOM      1  C7  <0> d   1      -2.596  -1.011  -0.669  0.00  0.00     0.048 A 
ATOM      2  C8  <0> d   1      -3.035  -2.011  -1.477  0.00  0.00     0.159 A 
ATOM      3  O1  <0> d   1      -4.247  -2.557  -1.352  0.00  0.00    -0.320 OA
ATOM      4  C9  <0> d   1      -5.145  -2.161  -0.428  0.00  0.00     0.100 A 
ATOM      5  C10 <0> d   1      -4.828  -1.129   0.473  0.00  0.00     0.050 A 
ATOM      6  C11 <0> d   1      -3.498  -0.500   0.377  0.00  0.00     0.197 A 
ATOM      7  O2  <0> d   1      -3.161   0.399   1.127  0.00  0.00    -0.286 OA
ATOM      8  C12 <0> d   1      -5.756  -0.718   1.430  0.00  0.00     0.021 A 
ATOM      9  C13 <0> d   1      -6.980  -1.321   1.491  0.00  0.00     0.038 A 
ATOM     10  C14 <0> d   1      -7.304  -2.345   0.603  0.00  0.00     0.076 A 
ATOM     11  C15 <0> d   1      -6.393  -2.764  -0.352  0.00  0.00     0.038 A 
ENDROOT
BRANCH  11  12
ATOM     12  C16 <0> d   1      -6.756  -3.872  -1.307  0.00  0.00     0.317 C 
BRANCH  12  13
ATOM     13  N1  <0> d   1      -6.369  -5.165  -0.726  0.00  0.00     0.096 N 
ATOM     14  C20 <0> d   1      -6.916  -6.280  -1.512  0.00  0.00     0.303 C 
ATOM     15  C19 <0> d   1      -6.558  -7.604  -0.831  0.00  0.00     0.302 C 
ATOM     16  N2  <0> d   1      -5.098  -7.712  -0.714  0.00  0.00     0.093 N 
ATOM     17  C18 <0> d   1      -4.551  -6.597   0.072  0.00  0.00     0.302 C 
ATOM     18  C17 <0> d   1      -4.909  -5.274  -0.608  0.00  0.00     0.303 C 
BRANCH  16  19
ATOM     19  C21 <0> d   1      -4.711  -9.005  -0.133  0.00  0.00     0.298 C 
BRANCH  19  20
ATOM     20  C22 <0> d   1      -4.858 -10.103  -1.188  0.00  0.00     0.194 C 
BRANCH  20  21
ATOM     21  O3  <0> d   1      -3.934  -9.867  -2.253  0.00  0.00    -0.399 OA
ATOM     22  H21 <0> d   1      -3.894 -10.557  -3.108  0.00  0.00     0.209 HD
ENDBRANCH  20  21
ENDBRANCH  19  20
ENDBRANCH  16  19
ENDBRANCH  12  13
ENDBRANCH  11  12
BRANCH  10  23
ATOM     23  O4  <0> d   1      -8.524  -2.936   0.675  0.00  0.00    -0.360 OA
ATOM     24  H22 <0> d   1      -8.785  -3.744  -0.024  0.00  0.00     0.217 HD
ENDBRANCH  10  23
BRANCH   1  25
ATOM     25  C6  <0> d   1      -1.238  -0.441  -0.842  0.00  0.00    -0.017 A 
ATOM     26  C1  <0> d   1      -1.067   0.939  -0.931  0.00  0.00     0.015 A 
ATOM     27  C2  <0> d   1       0.197   1.468  -1.097  0.00  0.00     0.040 A 
ATOM     28  C3  <0> d   1       1.301   0.630  -1.168  0.00  0.00     0.102 A 
ATOM     29  O6  <0> d   1       2.539   1.173  -1.333  0.00  0.00    -0.346 OA
ATOM     30  C4  <0> d   1       1.136  -0.749  -1.077  0.00  0.00     0.102 A 
ATOM     31  C24 <0> d   1       3.657   0.330  -1.030  0.00  0.00     0.202 C 
ATOM     32  C23 <0> d   1       3.417  -1.038  -1.682  0.00  0.00     0.202 C 
ATOM     33  O5  <0> d   1       2.208  -1.585  -1.145  0.00  0.00    -0.346 OA
ATOM     34  C5  <0> d   1      -0.131  -1.284  -0.916  0.00  0.00     0.052 A 
ENDBRANCH   1  25
TORSDOF 7
