REMARK  6 active torsions:
REMARK  status: ('A' for Active; 'I' for Inactive)
REMARK    1  A    between atoms: C4_4  and  C7_7 
REMARK    2  A    between atoms: C7_7  and  C8_8 
REMARK    3  A    between atoms: C8_8  and  C9_10 
REMARK    4  A    between atoms: C12_13  and  O4_24 
REMARK    5  A    between atoms: C13_14  and  C15_17 
REMARK    6  A    between atoms: C15_17  and  N1_18 
ROOT
ATOM      1  C9  <0> d   1       5.390  -1.646  -1.749  0.00  0.00     0.047 A 
ATOM      2  C10 <0> d   1       6.201  -2.093  -0.697  0.00  0.00     0.021 A 
ATOM      3  C11 <0> d   1       7.366  -2.751  -0.964  0.00  0.00     0.038 A 
ATOM      4  C12 <0> d   1       7.764  -2.974  -2.280  0.00  0.00     0.076 A 
ATOM      5  C13 <0> d   1       6.976  -2.534  -3.334  0.00  0.00     0.041 A 
ATOM      6  C14 <0> d   1       5.789  -1.870  -3.079  0.00  0.00     0.131 A 
ATOM      7  O2  <0> d   1       5.015  -1.438  -4.105  0.00  0.00    -0.190 OA
ENDROOT
BRANCH   1   8
ATOM      8  C8  <0> d   1       4.135  -0.945  -1.465  0.00  0.00     0.166 C 
ATOM      9  O1  <0> d   1       3.438  -0.555  -2.378  0.00  0.00    -0.292 OA
BRANCH   8  10
ATOM     10  C7  <0> d   1       3.711  -0.707  -0.039  0.00  0.00     0.122 C 
BRANCH  10  11
ATOM     11  C4  <0> d   1       2.396   0.029  -0.022  0.00  0.00    -0.051 A 
ATOM     12  C3  <0> d   1       2.377   1.411  -0.014  0.00  0.00     0.007 A 
ATOM     13  C2  <0> d   1       1.171   2.086   0.002  0.00  0.00     0.001 A 
ATOM     14  C1  <0> d   1      -0.017   1.378   0.010  0.00  0.00     0.000 A 
ATOM     15  C6  <0> d   1       0.002  -0.004   0.002  0.00  0.00     0.001 A 
ATOM     16  C5  <0> d   1       1.208  -0.679  -0.014  0.00  0.00     0.007 A 
ENDBRANCH  10  11
ENDBRANCH   8  10
ENDBRANCH   1   8
BRANCH   5  17
ATOM     17  C15 <0> d   1       7.413  -2.779  -4.755  0.00  0.00     0.317 C 
BRANCH  17  18
ATOM     18  N1  <0> d   1       8.231  -1.650  -5.218  0.00  0.00     0.097 N 
ATOM     19  C19 <0> d   1       8.870  -1.955  -6.506  0.00  0.00     0.299 C 
ATOM     20  C18 <0> d   1       9.757  -0.778  -6.921  0.00  0.00     0.198 C 
ATOM     21  O3  <0> d   1       8.966   0.412  -6.978  0.00  0.00    -0.388 OA
ATOM     22  C17 <0> d   1       8.330   0.739  -5.740  0.00  0.00     0.198 C 
ATOM     23  C16 <0> d   1       7.428  -0.422  -5.313  0.00  0.00     0.299 C 
ENDBRANCH  17  18
ENDBRANCH   5  17
BRANCH   4  24
ATOM     24  O4  <0> d   1       8.927  -3.624  -2.532  0.00  0.00    -0.360 OA
ATOM     25  H20 <0> d   1       9.244  -3.802  -3.570  0.00  0.00     0.217 HD
ENDBRANCH   4  24
TORSDOF 6
