REMARK  5 active torsions:
REMARK  status: ('A' for Active; 'I' for Inactive)
REMARK    1  A    between atoms: C4_4  and  C7_7 
REMARK    2  A    between atoms: C7_7  and  C8_8 
REMARK    3  A    between atoms: C7_7  and  N1_14 
REMARK    4  A    between atoms: N2_17  and  C18_20 
REMARK    5  A    between atoms: C18_20  and  C19_21 
ROOT
ATOM      1  N1  <0> d   1       1.159   1.777  -4.911  0.00  0.00     0.105 N 
ATOM      2  C14 <0> d   1       2.560   1.359  -5.052  0.00  0.00     0.304 C 
ATOM      3  C15 <0> d   1       3.159   1.114  -3.665  0.00  0.00     0.303 C 
ATOM      4  N2  <0> d   1       3.057   2.344  -2.866  0.00  0.00     0.096 N 
ATOM      5  C16 <0> d   1       1.655   2.762  -2.725  0.00  0.00     0.303 C 
ATOM      6  C17 <0> d   1       1.057   3.007  -4.113  0.00  0.00     0.304 C 
ENDROOT
BRANCH   4   7
ATOM      7  C18 <0> d   1       3.690   2.172  -1.552  0.00  0.00     0.312 C 
BRANCH   7   8
ATOM      8  C19 <0> d   1       3.786   3.509  -0.862  0.00  0.00    -0.010 C 
ATOM      9  C23 <0> d   1       4.863   4.400  -1.054  0.00  0.00     0.017 C 
ATOM     10  C22 <0> d   1       5.070   5.396  -0.083  0.00  0.00     0.091 C 
ATOM     11  C24 <0> d   1       5.828   4.303  -2.146  0.00  0.00    -0.012 C 
ATOM     12  O2  <0> d   1       4.102   5.680   0.816  0.00  0.00    -0.275 OA
ATOM     13  C31 <0> d   1       6.257   6.132  -0.064  0.00  0.00     0.039 C 
ATOM     14  C21 <0> d   1       2.952   4.987   0.833  0.00  0.00     0.288 C 
ATOM     15  C20 <0> d   1       2.814   3.831   0.042  0.00  0.00     0.092 C 
ATOM     16  O1  <0> d   1       2.035   5.350   1.545  0.00  0.00    -0.260 OA
ATOM     17  C30 <0> d   1       7.252   5.893  -0.952  0.00  0.00     0.015 C 
ATOM     18  C29 <0> d   1       7.086   4.945  -1.980  0.00  0.00    -0.025 C 
ATOM     19  C28 <0> d   1       8.133   4.668  -2.872  0.00  0.00     0.012 C 
ATOM     20  C27 <0> d   1       7.889   3.926  -3.988  0.00  0.00     0.001 C 
ATOM     21  C26 <0> d   1       6.615   3.428  -4.235  0.00  0.00     0.001 C 
ATOM     22  C25 <0> d   1       5.605   3.602  -3.331  0.00  0.00     0.013 C 
ENDBRANCH   7   8
ENDBRANCH   4   7
BRANCH   1  23
ATOM     23  C7  <0> d   1       0.526   1.949  -6.225  0.00  0.00     0.289 C 
BRANCH  23  24
ATOM     24  C4  <0> d   1       0.480   0.622  -6.938  0.00  0.00    -0.021 A 
ATOM     25  C3  <0> d   1       0.823   0.544  -8.275  0.00  0.00     0.010 A 
ATOM     26  C2  <0> d   1       0.782  -0.673  -8.929  0.00  0.00     0.001 A 
ATOM     27  C1  <0> d   1       0.398  -1.812  -8.246  0.00  0.00     0.000 A 
ATOM     28  C6  <0> d   1       0.056  -1.734  -6.909  0.00  0.00     0.001 A 
ATOM     29  C5  <0> d   1       0.102  -0.518  -6.254  0.00  0.00     0.010 A 
ENDBRANCH  23  24
BRANCH  23  30
ATOM     30  C8  <0> d   1      -0.877   2.470  -6.043  0.00  0.00    -0.021 A 
ATOM     31  C13 <0> d   1      -1.339   3.503  -6.837  0.00  0.00     0.010 A 
ATOM     32  C12 <0> d   1      -2.625   3.981  -6.670  0.00  0.00     0.001 A 
ATOM     33  C11 <0> d   1      -3.450   3.424  -5.710  0.00  0.00     0.000 A 
ATOM     34  C10 <0> d   1      -2.988   2.390  -4.917  0.00  0.00     0.001 A 
ATOM     35  C9  <0> d   1      -1.703   1.910  -5.087  0.00  0.00     0.010 A 
ENDBRANCH  23  30
ENDBRANCH   1  23
TORSDOF 5
