REMARK  6 active torsions:
REMARK  status: ('A' for Active; 'I' for Inactive)
REMARK    1  A    between atoms: C2_2  and  O1_3 
REMARK    2  A    between atoms: O1_3  and  C3_4 
REMARK    3  A    between atoms: C8_9  and  O2_10 
REMARK    4  A    between atoms: O2_10  and  C9_11 
REMARK    5  A    between atoms: C11_16  and  C12_17 
REMARK    6  A    between atoms: C15_20  and  O4_24 
ROOT
ATOM      1  C9  <0> d   1       2.546  -2.091   4.458  0.00  0.00     0.124 A 
ATOM      2  C10 <0> d   1       2.698  -3.417   4.689  0.00  0.00     0.149 A 
ATOM      3  N1  <0> d   1       3.280  -3.562   5.909  0.00  0.00    -0.286 N 
ATOM      4  H1  <0> d   1       3.508  -4.404   6.335  0.00  0.00     0.188 HD
ATOM      5  N2  <0> d   1       3.491  -2.286   6.445  0.00  0.00    -0.172 NA
ATOM      6  C11 <0> d   1       3.058  -1.397   5.575  0.00  0.00     0.125 A 
ENDROOT
BRANCH   1   7
ATOM      7  O2  <0> d   1       2.001  -1.528   3.345  0.00  0.00    -0.304 OA
BRANCH   7   8
ATOM      8  C8  <0> d   1       1.457  -2.355   2.413  0.00  0.00     0.109 A 
ATOM      9  C3  <0> d   1       0.169  -2.852   2.587  0.00  0.00     0.102 A 
ATOM     10  C4  <0> d   1      -0.383  -3.690   1.631  0.00  0.00     0.039 A 
ATOM     11  C5  <0> d   1       0.348  -4.035   0.510  0.00  0.00     0.003 A 
ATOM     12  C6  <0> d   1       1.630  -3.546   0.339  0.00  0.00     0.003 A 
ATOM     13  C7  <0> d   1       2.187  -2.710   1.289  0.00  0.00     0.040 A 
BRANCH   9  14
ATOM     14  O1  <0> d   1      -0.549  -2.512   3.691  0.00  0.00    -0.349 OA
BRANCH  14  15
ATOM     15  C2  <0> d   1      -1.865  -3.059   3.803  0.00  0.00     0.171 C 
ATOM     16  C1  <0> d   1      -2.512  -2.567   5.100  0.00  0.00     0.034 C 
ENDBRANCH  14  15
ENDBRANCH   9  14
ENDBRANCH   7   8
ENDBRANCH   1   7
BRANCH   6  17
ATOM     17  C12 <0> d   1       3.097   0.076   5.742  0.00  0.00     0.034 A 
ATOM     18  C17 <0> d   1       3.635   0.636   6.905  0.00  0.00     0.122 A 
ATOM     19  C16 <0> d   1       3.673   2.012   7.053  0.00  0.00     0.077 A 
ATOM     20  O3  <0> d   1       4.123  -0.169   7.886  0.00  0.00    -0.191 OA
ATOM     21  C15 <0> d   1       3.170   2.831   6.054  0.00  0.00     0.068 A 
ATOM     22  C14 <0> d   1       2.630   2.276   4.901  0.00  0.00     0.037 A 
ATOM     23  C13 <0> d   1       2.593   0.906   4.743  0.00  0.00     0.020 A 
BRANCH  21  24
ATOM     24  O4  <0> d   1       3.204   4.181   6.204  0.00  0.00    -0.361 OA
ATOM     25  H15 <0> d   1       2.418   4.550   6.630  0.00  0.00     0.217 HD
ENDBRANCH  21  24
ENDBRANCH   6  17
TORSDOF 6
