REMARK  8 active torsions:
REMARK  status: ('A' for Active; 'I' for Inactive)
REMARK    1  A    between atoms: C2_2  and  N1_3 
REMARK    2  A    between atoms: N2_6  and  C7_9 
REMARK    3  A    between atoms: C7_9  and  C8_10 
REMARK    4  A    between atoms: C9_11  and  O4_28 
REMARK    5  A    between atoms: C12_14  and  C14_17 
REMARK    6  A    between atoms: C14_17  and  C15_19 
REMARK    7  A    between atoms: C15_19  and  C16_20 
REMARK    8  A    between atoms: C21_25  and  O3_26 
ROOT
ATOM      1  C8  <0> d   1       1.841   1.829  -1.202  0.00  0.00     0.041 A 
ATOM      2  C9  <0> d   1       3.101   2.411  -1.204  0.00  0.00     0.076 A 
ATOM      3  C10 <0> d   1       3.746   2.697  -0.004  0.00  0.00     0.038 A 
ATOM      4  C11 <0> d   1       3.146   2.409   1.188  0.00  0.00     0.021 A 
ATOM      5  C12 <0> d   1       1.872   1.827   1.210  0.00  0.00     0.047 A 
ATOM      6  C13 <0> d   1       1.220   1.531  -0.001  0.00  0.00     0.131 A 
ATOM      7  O1  <0> d   1      -0.011   0.963   0.007  0.00  0.00    -0.190 OA
ENDROOT
BRANCH   5   8
ATOM      8  C14 <0> d   1       1.224   1.522   2.488  0.00  0.00     0.166 C 
ATOM      9  O2  <0> d   1       0.122   1.013   2.503  0.00  0.00    -0.292 OA
BRANCH   8  10
ATOM     10  C15 <0> d   1       1.925   1.840   3.783  0.00  0.00     0.125 C 
BRANCH  10  11
ATOM     11  C16 <0> d   1       1.052   1.431   4.941  0.00  0.00    -0.018 A 
ATOM     12  C21 <0> d   1       1.077   0.123   5.402  0.00  0.00     0.074 A 
ATOM     13  C20 <0> d   1       0.272  -0.250   6.469  0.00  0.00     0.037 A 
ATOM     14  C19 <0> d   1      -0.553   0.682   7.069  0.00  0.00     0.003 A 
ATOM     15  C18 <0> d   1      -0.577   1.985   6.607  0.00  0.00     0.001 A 
ATOM     16  C17 <0> d   1       0.228   2.360   5.548  0.00  0.00     0.010 A 
BRANCH  12  17
ATOM     17  O3  <0> d   1       1.890  -0.791   4.811  0.00  0.00    -0.355 OA
ATOM     18  C22 <0> d   1       1.865  -2.119   5.339  0.00  0.00     0.210 C 
ENDBRANCH  12  17
ENDBRANCH  10  11
ENDBRANCH   8  10
ENDBRANCH   5   8
BRANCH   1  19
ATOM     19  C7  <0> d   1       1.149   1.523  -2.505  0.00  0.00     0.317 C 
BRANCH  19  20
ATOM     20  N2  <0> d   1       0.344   2.682  -2.916  0.00  0.00     0.096 N 
ATOM     21  C4  <0> d   1      -0.154   2.516  -4.289  0.00  0.00     0.300 C 
ATOM     22  C3  <0> d   1      -0.919   3.775  -4.706  0.00  0.00     0.265 C 
ATOM     23  N1  <0> d   1      -2.028   4.004  -3.770  0.00  0.00    -0.068 N 
ATOM     24  C6  <0> d   1      -1.530   4.169  -2.397  0.00  0.00     0.265 C 
ATOM     25  H28 <0> d   1      -2.679   3.117  -3.791  0.00  0.00     0.280 HD
ATOM     26  C5  <0> d   1      -0.766   2.910  -1.980  0.00  0.00     0.300 C 
BRANCH  23  27
ATOM     27  C2  <0> d   1      -2.833   5.162  -4.181  0.00  0.00     0.230 C 
ATOM     28  C1  <0> d   1      -4.109   5.221  -3.339  0.00  0.00     0.034 C 
ENDBRANCH  23  27
ENDBRANCH  19  20
ENDBRANCH   1  19
BRANCH   2  29
ATOM     29  O4  <0> d   1       3.708   2.702  -2.382  0.00  0.00    -0.360 OA
ATOM     30  H27 <0> d   1       4.706   3.163  -2.387  0.00  0.00     0.217 HD
ENDBRANCH   2  29
TORSDOF 8
