REMARK  6 active torsions:
REMARK  status: ('A' for Active; 'I' for Inactive)
REMARK    1  A    between atoms: C3_3  and  C6_7 
REMARK    2  A    between atoms: C13_15  and  C15_18 
REMARK    3  A    between atoms: C15_18  and  N2_19 
REMARK    4  A    between atoms: N3_22  and  C20_25 
REMARK    5  A    between atoms: C20_25  and  C21_26 
REMARK    6  A    between atoms: C21_26  and  O3_27 
ROOT
ATOM      1  C6  <0> d   1       4.041   2.270   0.392  0.00  0.00     0.054 C 
ATOM      2  C7  <0> d   1       5.162   1.512   0.478  0.00  0.00     0.128 A 
ATOM      3  C8  <0> d   1       6.535   2.007   0.672  0.00  0.00     0.218 A 
ATOM      4  O1  <0> d   1       6.901   3.163   0.787  0.00  0.00    -0.284 OA
ATOM      5  C9  <0> d   1       7.366   0.789   0.696  0.00  0.00     0.051 A 
ATOM      6  C10 <0> d   1       8.736   0.573   0.845  0.00  0.00     0.021 A 
ATOM      7  C11 <0> d   1       9.230  -0.701   0.825  0.00  0.00     0.041 A 
ATOM      8  C12 <0> d   1       8.370  -1.782   0.655  0.00  0.00     0.118 A 
ATOM      9  C13 <0> d   1       7.007  -1.582   0.506  0.00  0.00     0.039 A 
ATOM     10  C14 <0> d   1       6.488  -0.293   0.524  0.00  0.00     0.101 A 
ATOM     11  O2  <0> d   1       5.221   0.161   0.407  0.00  0.00    -0.305 OA
ATOM     12  O4  <0> d   1       8.870  -3.044   0.636  0.00  0.00    -0.191 OA
ENDROOT
BRANCH   9  13
ATOM     13  C15 <0> d   1       6.088  -2.762   0.323  0.00  0.00     0.279 C 
BRANCH  13  14
ATOM     14  N2  <0> d   1       5.626  -3.230   1.637  0.00  0.00    -0.064 N 
ATOM     15  C19 <0> d   1       4.827  -4.451   1.467  0.00  0.00     0.265 C 
ATOM     16  C18 <0> d   1       4.361  -4.950   2.837  0.00  0.00     0.300 C 
ATOM     17  N3  <0> d   1       3.559  -3.906   3.489  0.00  0.00     0.093 N 
ATOM     18  C17 <0> d   1       4.338  -2.669   3.643  0.00  0.00     0.300 C 
ATOM     19  C16 <0> d   1       4.804  -2.189   2.267  0.00  0.00     0.265 C 
ATOM     20  H23 <0> d   1       6.423  -3.429   2.222  0.00  0.00     0.280 HD
BRANCH  17  21
ATOM     21  C20 <0> d   1       3.045  -4.369   4.785  0.00  0.00     0.298 C 
BRANCH  21  22
ATOM     22  C21 <0> d   1       1.860  -3.496   5.205  0.00  0.00     0.194 C 
BRANCH  22  23
ATOM     23  O3  <0> d   1       0.791  -3.663   4.272  0.00  0.00    -0.399 OA
ATOM     24  H22 <0> d   1       0.005  -3.138   4.476  0.00  0.00     0.209 HD
ENDBRANCH  22  23
ENDBRANCH  21  22
ENDBRANCH  17  21
ENDBRANCH  13  14
ENDBRANCH   9  13
BRANCH   1  25
ATOM     25  C3  <0> d   1       2.722   1.626   0.312  0.00  0.00    -0.016 A 
ATOM     26  C2  <0> d   1       2.614   0.232   0.198  0.00  0.00     0.014 A 
ATOM     27  C1  <0> d   1       1.349  -0.323   0.128  0.00  0.00     0.020 A 
ATOM     28  C5  <0> d   1       0.242   0.505   0.171  0.00  0.00     0.116 A 
ATOM     29  N1  <0> d   1       0.372   1.814   0.278  0.00  0.00    -0.272 NA
ATOM     30  C4  <0> d   1       1.552   2.393   0.349  0.00  0.00     0.127 A 
ENDBRANCH   1  25
TORSDOF 6
