REMARK  5 active torsions:
REMARK  status: ('A' for Active; 'I' for Inactive)
REMARK    1  A    between atoms: N2_5  and  C6_8 
REMARK    2  A    between atoms: C6_8  and  C7_9 
REMARK    3  A    between atoms: C7_9  and  O1_10 
REMARK    4  A    between atoms: O1_10  and  C8_11 
REMARK    5  A    between atoms: C13_16  and  C17_22 
ROOT
ATOM      1  C8  <0> d   1      -0.045   1.360  -0.153  0.00  0.00     0.071 A 
ATOM      2  C9  <0> d   1       1.154   2.065  -0.064  0.00  0.00     0.038 A 
ATOM      3  C10 <0> d   1       2.346   1.406  -0.102  0.00  0.00     0.017 A 
ATOM      4  C11 <0> d   1       2.371   0.009  -0.233  0.00  0.00    -0.001 A 
ATOM      5  C12 <0> d   1       3.610  -0.682  -0.275  0.00  0.00     0.032 A 
ATOM      6  C13 <0> d   1       3.603  -2.045  -0.403  0.00  0.00     0.051 A 
ATOM      7  C14 <0> d   1       2.319  -2.744  -0.492  0.00  0.00     0.299 A 
ATOM      8  O2  <0> d   1       2.295  -3.956  -0.606  0.00  0.00    -0.259 OA
ATOM      9  O3  <0> d   1       1.168  -2.052  -0.450  0.00  0.00    -0.274 OA
ATOM     10  C15 <0> d   1       1.164  -0.707  -0.324  0.00  0.00     0.092 A 
ATOM     11  C16 <0> d   1      -0.041  -0.019  -0.283  0.00  0.00     0.075 A 
ENDROOT
BRANCH   1  12
ATOM     12  O1  <0> d   1      -1.225   2.030  -0.119  0.00  0.00    -0.349 OA
BRANCH  12  13
ATOM     13  C7  <0> d   1      -1.161   3.451   0.016  0.00  0.00     0.206 C 
BRANCH  13  14
ATOM     14  C6  <0> d   1      -2.579   4.026   0.036  0.00  0.00     0.299 C 
BRANCH  14  15
ATOM     15  N2  <0> d   1      -3.282   3.554   1.236  0.00  0.00     0.093 N 
ATOM     16  C3  <0> d   1      -2.821   4.271   2.433  0.00  0.00     0.302 C 
ATOM     17  C2  <0> d   1      -3.518   3.697   3.669  0.00  0.00     0.302 C 
ATOM     18  N1  <0> d   1      -4.973   3.825   3.510  0.00  0.00     0.087 N 
ATOM     19  C1  <0> d   1      -5.677   3.353   4.711  0.00  0.00     0.310 C 
ATOM     20  C5  <0> d   1      -5.434   3.107   2.314  0.00  0.00     0.302 C 
ATOM     21  C4  <0> d   1      -4.737   3.681   1.078  0.00  0.00     0.302 C 
ENDBRANCH  14  15
ENDBRANCH  13  14
ENDBRANCH  12  13
ENDBRANCH   1  12
BRANCH   6  22
ATOM     22  C17 <0> d   1       4.876  -2.801  -0.449  0.00  0.00    -0.020 A 
ATOM     23  C22 <0> d   1       5.063  -3.907   0.380  0.00  0.00     0.014 A 
ATOM     24  C21 <0> d   1       6.250  -4.608   0.333  0.00  0.00     0.024 A 
ATOM     25  C20 <0> d   1       7.255  -4.216  -0.536  0.00  0.00     0.034 A 
ATOM     26  C19 <0> d   1       7.075  -3.118  -1.360  0.00  0.00     0.024 A 
ATOM     27 Cl1  <0> d   1       8.746  -5.103  -0.590  0.00  0.00    -0.084 Cl
ATOM     28  C18 <0> d   1       5.889  -2.413  -1.325  0.00  0.00     0.014 A 
ENDBRANCH   6  22
TORSDOF 5
