REMARK  6 active torsions:
REMARK  status: ('A' for Active; 'I' for Inactive)
REMARK    1  A    between atoms: N2_5  and  C6_8 
REMARK    2  A    between atoms: C6_8  and  C7_9 
REMARK    3  A    between atoms: C8_10  and  O5_30 
REMARK    4  A    between atoms: C14_17  and  C15_18 
REMARK    5  A    between atoms: C19_22  and  O3_26 
REMARK    6  A    between atoms: C20_23  and  O2_24 
ROOT
ATOM      1  C7  <0> d   1       2.042   6.757  -0.264  0.00  0.00     0.038 A 
ATOM      2  C8  <0> d   1       2.625   8.008  -0.384  0.00  0.00     0.076 A 
ATOM      3  C9  <0> d   1       4.008   8.140  -0.465  0.00  0.00     0.038 A 
ATOM      4  C10 <0> d   1       4.807   7.031  -0.428  0.00  0.00     0.021 A 
ATOM      5  C11 <0> d   1       4.234   5.765  -0.308  0.00  0.00     0.051 A 
ATOM      6  C12 <0> d   1       2.839   5.620  -0.224  0.00  0.00     0.101 A 
ATOM      7  O1  <0> d   1       2.524   4.311  -0.115  0.00  0.00    -0.305 OA
ATOM      8  C13 <0> d   1       3.627   3.525  -0.117  0.00  0.00     0.128 A 
ATOM      9  C14 <0> d   1       3.647   2.171  -0.022  0.00  0.00     0.055 C 
ATOM     10  C23 <0> d   1       4.798   4.405  -0.235  0.00  0.00     0.218 A 
ATOM     11  O4  <0> d   1       5.973   4.083  -0.268  0.00  0.00    -0.284 OA
ENDROOT
BRANCH   9  12
ATOM     12  C15 <0> d   1       2.393   1.412  -0.084  0.00  0.00     0.003 A 
ATOM     13  C20 <0> d   1       2.415   0.031  -0.334  0.00  0.00     0.111 A 
ATOM     14  C19 <0> d   1       1.220  -0.676  -0.391  0.00  0.00     0.102 A 
ATOM     15  C18 <0> d   1       0.015  -0.018  -0.203  0.00  0.00     0.040 A 
ATOM     16  C17 <0> d   1      -0.008   1.345   0.044  0.00  0.00     0.004 A 
ATOM     17  C16 <0> d   1       1.166   2.062   0.104  0.00  0.00     0.014 A 
BRANCH  13  18
ATOM     18  O2  <0> d   1       3.598  -0.611  -0.517  0.00  0.00    -0.352 OA
ATOM     19  C21 <0> d   1       4.090  -0.693  -1.856  0.00  0.00     0.210 C 
ENDBRANCH  13  18
BRANCH  14  20
ATOM     20  O3  <0> d   1       1.233  -2.015  -0.631  0.00  0.00    -0.353 OA
ATOM     21  C22 <0> d   1      -0.032  -2.678  -0.676  0.00  0.00     0.210 C 
ENDBRANCH  14  20
ENDBRANCH   9  12
BRANCH   1  22
ATOM     22  C6  <0> d   1       0.543   6.629  -0.175  0.00  0.00     0.317 C 
BRANCH  22  23
ATOM     23  N2  <0> d   1       0.129   6.686   1.233  0.00  0.00     0.096 N 
ATOM     24  C3  <0> d   1      -1.331   6.804   1.348  0.00  0.00     0.300 C 
ATOM     25  C2  <0> d   1      -1.715   6.940   2.824  0.00  0.00     0.264 C 
ATOM     26  N1  <0> d   1      -1.223   5.771   3.565  0.00  0.00    -0.072 N 
ATOM     27  C1  <0> d   1      -1.637   5.828   4.973  0.00  0.00     0.269 C 
ATOM     28  C5  <0> d   1       0.237   5.653   3.450  0.00  0.00     0.264 C 
ATOM     29  H27 <0> d   1      -1.673   4.872   3.118  0.00  0.00     0.279 HD
ATOM     30  C4  <0> d   1       0.620   5.517   1.974  0.00  0.00     0.300 C 
ENDBRANCH  22  23
ENDBRANCH   1  22
BRANCH   2  31
ATOM     31  O5  <0> d   1       1.841   9.115  -0.421  0.00  0.00    -0.360 OA
ATOM     32  H26 <0> d   1       2.298  10.111  -0.516  0.00  0.00     0.217 HD
ENDBRANCH   2  31
TORSDOF 6
