REMARK  4 active torsions:
REMARK  status: ('A' for Active; 'I' for Inactive)
REMARK    1  A    between atoms: C6_6  and  O3_27 
REMARK    2  A    between atoms: C7_7  and  C17_19 
REMARK    3  A    between atoms: C10_12  and  C11_13 
REMARK    4  A    between atoms: C17_19  and  N1_20 
ROOT
ATOM      1  C1  <0> d   1      -0.018   1.503   0.010  0.00  0.00     0.050 C 
ATOM      2  C2  <0> d   1       0.002  -0.004   0.002  0.00  0.00    -0.032 C 
ATOM      3  C3  <0> d   1      -1.206  -0.749   0.004  0.00  0.00     0.006 A 
ATOM      4  C4  <0> d   1      -2.438  -0.106  -0.189  0.00  0.00     0.017 A 
ATOM      5  C5  <0> d   1      -3.588  -0.839  -0.225  0.00  0.00     0.038 A 
ATOM      6  C6  <0> d   1      -3.550  -2.223  -0.064  0.00  0.00     0.076 A 
ATOM      7  C7  <0> d   1      -2.345  -2.873   0.146  0.00  0.00     0.035 A 
ATOM      8  C8  <0> d   1      -1.168  -2.143   0.192  0.00  0.00     0.101 A 
ATOM      9  O1  <0> d   1       0.014  -2.760   0.438  0.00  0.00    -0.273 OA
ATOM     10  C9  <0> d   1       1.125  -2.162  -0.050  0.00  0.00     0.300 C 
ATOM     11  O2  <0> d   1       2.042  -2.819  -0.510  0.00  0.00    -0.259 OA
ATOM     12  C10 <0> d   1       1.190  -0.693  -0.013  0.00  0.00     0.057 C 
ENDROOT
BRANCH   7  13
ATOM     13  C17 <0> d   1      -2.314  -4.370   0.324  0.00  0.00     0.279 C 
BRANCH  13  14
ATOM     14  N1  <0> d   1      -2.152  -5.015  -0.986  0.00  0.00    -0.064 N 
ATOM     15  C21 <0> d   1      -2.002  -6.465  -0.802  0.00  0.00     0.265 C 
ATOM     16  C20 <0> d   1      -1.814  -7.135  -2.164  0.00  0.00     0.299 C 
ATOM     17  N2  <0> d   1      -2.980  -6.850  -3.012  0.00  0.00     0.087 N 
ATOM     18  C19 <0> d   1      -3.158  -5.401  -3.185  0.00  0.00     0.299 C 
ATOM     19  C22 <0> d   1      -2.864  -7.525  -4.312  0.00  0.00     0.310 C 
ATOM     20  C18 <0> d   1      -3.334  -4.745  -1.814  0.00  0.00     0.265 C 
ATOM     21  H25 <0> d   1      -1.331  -4.647  -1.443  0.00  0.00     0.280 HD
ENDBRANCH  13  14
ENDBRANCH   7  13
BRANCH   6  22
ATOM     22  O3  <0> d   1      -4.703  -2.939  -0.113  0.00  0.00    -0.360 OA
ATOM     23  H24 <0> d   1      -4.938  -3.245  -0.999  0.00  0.00     0.217 HD
ENDBRANCH   6  22
BRANCH  12  24
ATOM     24  C11 <0> d   1       2.490   0.018   0.013  0.00  0.00    -0.019 A 
ATOM     25  C16 <0> d   1       3.344  -0.124   1.105  0.00  0.00     0.012 A 
ATOM     26  C15 <0> d   1       4.556   0.535   1.121  0.00  0.00     0.001 A 
ATOM     27  C14 <0> d   1       4.919   1.346   0.060  0.00  0.00     0.000 A 
ATOM     28  C13 <0> d   1       4.073   1.496  -1.024  0.00  0.00     0.001 A 
ATOM     29  C12 <0> d   1       2.861   0.837  -1.053  0.00  0.00     0.012 A 
ENDBRANCH  12  24
TORSDOF 4
