REMARK  4 active torsions:
REMARK  status: ('A' for Active; 'I' for Inactive)
REMARK    1  A    between atoms: C4_4  and  O3_26 
REMARK    2  A    between atoms: C5_5  and  C15_18 
REMARK    3  A    between atoms: C9_10  and  C10_11 
REMARK    4  A    between atoms: C15_18  and  N1_19 
ROOT
ATOM      1  C1  <0> d   1      -0.018   1.503   0.010  0.00  0.00     0.049 C 
ATOM      2  C2  <0> d   1       0.002  -0.004   0.002  0.00  0.00    -0.042 A 
ATOM      3  C3  <0> d   1       0.006  -0.682  -1.184  0.00  0.00     0.045 A 
ATOM      4  C4  <0> d   1       0.024  -2.074  -1.196  0.00  0.00     0.077 A 
ATOM      5  C5  <0> d   1       0.039  -2.788  -0.008  0.00  0.00     0.038 A 
ATOM      6  C6  <0> d   1       0.036  -2.114   1.205  0.00  0.00     0.102 A 
ATOM      7  C7  <0> d   1       0.023  -0.709   1.205  0.00  0.00     0.057 A 
ATOM      8  C8  <0> d   1       0.031  -0.301   2.621  0.00  0.00     0.219 A 
ATOM      9  O1  <0> d   1       0.019   0.835   3.064  0.00  0.00    -0.284 OA
ATOM     10  C9  <0> d   1       0.054  -1.515   3.357  0.00  0.00     0.128 A 
ATOM     11  O2  <0> d   1       0.047  -2.549   2.483  0.00  0.00    -0.305 OA
ENDROOT
BRANCH   5  12
ATOM     12  C15 <0> d   1       0.058  -4.295  -0.034  0.00  0.00     0.317 C 
BRANCH  12  13
ATOM     13  N1  <0> d   1       1.449  -4.767  -0.049  0.00  0.00     0.096 N 
ATOM     14  C19 <0> d   1       1.512  -6.212  -0.312  0.00  0.00     0.303 C 
ATOM     15  C18 <0> d   1       2.976  -6.648  -0.399  0.00  0.00     0.302 C 
ATOM     16  N2  <0> d   1       3.659  -6.315   0.859  0.00  0.00     0.087 N 
ATOM     17  C17 <0> d   1       3.596  -4.870   1.122  0.00  0.00     0.302 C 
ATOM     18  C20 <0> d   1       5.050  -6.787   0.844  0.00  0.00     0.310 C 
ATOM     19  C16 <0> d   1       2.132  -4.434   1.208  0.00  0.00     0.303 C 
ENDBRANCH  12  13
ENDBRANCH   5  12
BRANCH   4  20
ATOM     20  O3  <0> d   1       0.027  -2.738  -2.380  0.00  0.00    -0.360 OA
ATOM     21  H22 <0> d   1       0.911  -2.918  -2.728  0.00  0.00     0.217 HD
ENDBRANCH   4  20
BRANCH  10  22
ATOM     22  C10 <0> d   1       0.069  -1.622   4.718  0.00  0.00     0.060 C 
ATOM     23  C11 <0> d   1       0.092  -2.896   5.326  0.00  0.00     0.007 A 
ATOM     24  S1  <0> d   1       0.106  -4.507   4.561  0.00  0.00    -0.102 SA
ATOM     25  C12 <0> d   1       0.103  -3.223   6.680  0.00  0.00     0.019 A 
ATOM     26  C14 <0> d   1       0.135  -5.459   5.945  0.00  0.00     0.050 A 
ATOM     27  C13 <0> d   1       0.126  -4.566   6.966  0.00  0.00     0.008 A 
ENDBRANCH  10  22
TORSDOF 4
