REMARK  4 active torsions:
REMARK  status: ('A' for Active; 'I' for Inactive)
REMARK    1  A    between atoms: N1_4  and  C7_9 
REMARK    2  A    between atoms: C7_9  and  C8_10 
REMARK    3  A    between atoms: C8_10  and  C9_12 
REMARK    4  A    between atoms: C12_15  and  O4_19 
ROOT
ATOM      1  C8  <0> d   1       5.067   3.307  -0.001  0.00  0.00     0.190 C 
ATOM      2  O2  <0> d   1       5.615   3.571  -1.051  0.00  0.00    -0.290 OA
ENDROOT
BRANCH   1   3
ATOM      3  C7  <0> d   1       5.754   3.611   1.305  0.00  0.00     0.356 C 
BRANCH   3   4
ATOM      4  N1  <0> d   1       7.064   4.220   1.040  0.00  0.00     0.100 N 
ATOM      5  C3  <0> d   1       7.662   4.746   2.276  0.00  0.00     0.304 C 
ATOM      6  C2  <0> d   1       8.995   5.422   1.944  0.00  0.00     0.146 C 
ATOM      7  C1  <0> d   1       8.746   6.617   1.023  0.00  0.00     0.041 C 
ATOM      8  O1  <0> d   1       9.850   4.482   1.287  0.00  0.00    -0.378 OA
ATOM      9  C5  <0> d   1       9.299   3.950   0.079  0.00  0.00     0.146 C 
ATOM     10  C4  <0> d   1       7.969   3.259   0.392  0.00  0.00     0.304 C 
ATOM     11  C6  <0> d   1      10.274   2.935  -0.523  0.00  0.00     0.041 C 
ENDBRANCH   3   4
ENDBRANCH   1   3
BRANCH   1  12
ATOM     12  C9  <0> d   1       3.737   2.693  -0.003  0.00  0.00     0.048 A 
ATOM     13  C14 <0> d   1       3.093   2.407  -1.221  0.00  0.00     0.123 A 
ATOM     14  C13 <0> d   1       1.836   1.827  -1.209  0.00  0.00     0.077 A 
ATOM     15  O3  <0> d   1       3.699   2.699  -2.398  0.00  0.00    -0.191 OA
ATOM     16  C12 <0> d   1       1.221   1.531  -0.001  0.00  0.00     0.068 A 
ATOM     17  C11 <0> d   1       1.859   1.821   1.202  0.00  0.00     0.037 A 
ATOM     18  C10 <0> d   1       3.100   2.387   1.207  0.00  0.00     0.021 A 
BRANCH  16  19
ATOM     19  O4  <0> d   1      -0.011   0.963   0.007  0.00  0.00    -0.361 OA
ATOM     20  H18 <0> d   1      -0.517   0.733  -0.942  0.00  0.00     0.217 HD
ENDBRANCH  16  19
ENDBRANCH   1  12
TORSDOF 4
