REMARK  6 active torsions:
REMARK  status: ('A' for Active; 'I' for Inactive)
REMARK    1  A    between atoms: N2_5  and  C6_8 
REMARK    2  A    between atoms: C6_8  and  C7_9 
REMARK    3  A    between atoms: C8_10  and  O5_30 
REMARK    4  A    between atoms: C14_17  and  C15_18 
REMARK    5  A    between atoms: C17_20  and  O3_26 
REMARK    6  A    between atoms: C20_23  and  O2_24 
ROOT
ATOM      1  C7  <0> d   1       0.109  -3.769   2.715  0.00  0.00     0.036 A 
ATOM      2  C8  <0> d   1       1.479  -3.795   2.922  0.00  0.00     0.076 A 
ATOM      3  C9  <0> d   1       2.009  -4.352   4.082  0.00  0.00     0.038 A 
ATOM      4  C10 <0> d   1       1.180  -4.881   5.031  0.00  0.00     0.021 A 
ATOM      5  C11 <0> d   1      -0.201  -4.862   4.836  0.00  0.00     0.051 A 
ATOM      6  C12 <0> d   1      -0.748  -4.297   3.672  0.00  0.00     0.101 A 
ATOM      7  O1  <0> d   1      -2.095  -4.388   3.712  0.00  0.00    -0.305 OA
ATOM      8  C13 <0> d   1      -2.526  -4.984   4.849  0.00  0.00     0.128 A 
ATOM      9  C14 <0> d   1      -3.819  -5.223   5.189  0.00  0.00     0.055 C 
ATOM     10  C23 <0> d   1      -1.340  -5.336   5.643  0.00  0.00     0.218 A 
ATOM     11  O4  <0> d   1      -1.307  -5.886   6.730  0.00  0.00    -0.284 OA
ENDROOT
BRANCH   9  12
ATOM     12  C15 <0> d   1      -4.906  -4.685   4.364  0.00  0.00     0.003 A 
ATOM     13  C20 <0> d   1      -6.214  -4.620   4.873  0.00  0.00     0.078 A 
ATOM     14  C19 <0> d   1      -7.233  -4.105   4.088  0.00  0.00     0.040 A 
ATOM     15  C18 <0> d   1      -6.968  -3.667   2.806  0.00  0.00     0.039 A 
ATOM     16  C17 <0> d   1      -5.678  -3.733   2.292  0.00  0.00     0.069 A 
ATOM     17  C16 <0> d   1      -4.648  -4.238   3.062  0.00  0.00     0.051 A 
BRANCH  13  18
ATOM     18  O2  <0> d   1      -6.477  -5.055   6.132  0.00  0.00    -0.355 OA
ATOM     19  C21 <0> d   1      -7.829  -4.957   6.582  0.00  0.00     0.210 C 
ENDBRANCH  13  18
BRANCH  16  20
ATOM     20  O3  <0> d   1      -5.428  -3.298   1.028  0.00  0.00    -0.356 OA
ATOM     21  C22 <0> d   1      -6.538  -2.787   0.287  0.00  0.00     0.210 C 
ENDBRANCH  16  20
ENDBRANCH   9  12
BRANCH   1  22
ATOM     22  C6  <0> d   1      -0.451  -3.163   1.454  0.00  0.00     0.279 C 
BRANCH  22  23
ATOM     23  N2  <0> d   1      -0.698  -1.731   1.667  0.00  0.00    -0.064 N 
ATOM     24  C3  <0> d   1      -1.354  -1.165   0.481  0.00  0.00     0.265 C 
ATOM     25  C2  <0> d   1      -1.628   0.323   0.710  0.00  0.00     0.299 C 
ATOM     26  N1  <0> d   1      -0.359   1.018   0.967  0.00  0.00     0.087 N 
ATOM     27  C1  <0> d   1      -0.575   2.461   1.137  0.00  0.00     0.310 C 
ATOM     28  C5  <0> d   1       0.321   0.446   2.138  0.00  0.00     0.299 C 
ATOM     29  C4  <0> d   1       0.580  -1.043   1.897  0.00  0.00     0.265 C 
ATOM     30  H27 <0> d   1      -1.295  -1.609   2.472  0.00  0.00     0.280 HD
ENDBRANCH  22  23
ENDBRANCH   1  22
BRANCH   2  31
ATOM     31  O5  <0> d   1       2.311  -3.273   1.985  0.00  0.00    -0.360 OA
ATOM     32  H26 <0> d   1       2.507  -2.335   2.112  0.00  0.00     0.217 HD
ENDBRANCH   2  31
TORSDOF 6
