REMARK  6 active torsions:
REMARK  status: ('A' for Active; 'I' for Inactive)
REMARK    1  A    between atoms: C2_2  and  O1_3 
REMARK    2  A    between atoms: O1_3  and  C3_4 
REMARK    3  A    between atoms: C8_9  and  C9_10 
REMARK    4  A    between atoms: C15_17  and  O4_29 
REMARK    5  A    between atoms: C16_18  and  C18_21 
REMARK    6  A    between atoms: C18_21  and  N1_22 
ROOT
ATOM      1  C9  <0> d   1       3.190   4.001   5.403  0.00  0.00     0.055 C 
ATOM      2  C10 <0> d   1       3.817   3.320   4.410  0.00  0.00     0.128 A 
ATOM      3  C11 <0> d   1       5.218   3.485   3.994  0.00  0.00     0.218 A 
ATOM      4  O2  <0> d   1       6.048   4.247   4.457  0.00  0.00    -0.284 OA
ATOM      5  C12 <0> d   1       5.392   2.522   2.892  0.00  0.00     0.051 A 
ATOM      6  C13 <0> d   1       6.475   2.189   2.078  0.00  0.00     0.021 A 
ATOM      7  C14 <0> d   1       6.334   1.231   1.114  0.00  0.00     0.038 A 
ATOM      8  C15 <0> d   1       5.112   0.584   0.946  0.00  0.00     0.076 A 
ATOM      9  C16 <0> d   1       4.027   0.908   1.743  0.00  0.00     0.038 A 
ATOM     10  C17 <0> d   1       4.154   1.880   2.728  0.00  0.00     0.101 A 
ATOM     11  O3  <0> d   1       3.267   2.366   3.623  0.00  0.00    -0.305 OA
ENDROOT
BRANCH   1  12
ATOM     12  C8  <0> d   1       1.748   3.828   5.614  0.00  0.00     0.000 A 
ATOM     13  C3  <0> d   1       1.028   4.762   6.377  0.00  0.00     0.079 A 
ATOM     14  C4  <0> d   1      -0.334   4.589   6.566  0.00  0.00     0.037 A 
ATOM     15  C5  <0> d   1      -0.978   3.498   6.014  0.00  0.00     0.003 A 
ATOM     16  C6  <0> d   1      -0.271   2.571   5.264  0.00  0.00     0.001 A 
ATOM     17  C7  <0> d   1       1.082   2.727   5.061  0.00  0.00     0.014 A 
BRANCH  13  18
ATOM     18  O1  <0> d   1       1.661   5.830   6.923  0.00  0.00    -0.351 OA
BRANCH  18  19
ATOM     19  C2  <0> d   1       0.863   6.737   7.686  0.00  0.00     0.171 C 
ATOM     20  C1  <0> d   1       1.745   7.870   8.217  0.00  0.00     0.034 C 
ENDBRANCH  18  19
ENDBRANCH  13  18
ENDBRANCH   1  12
BRANCH   9  21
ATOM     21  C18 <0> d   1       2.710   0.202   1.546  0.00  0.00     0.317 C 
BRANCH  21  22
ATOM     22  N1  <0> d   1       1.897   0.944   0.574  0.00  0.00     0.096 N 
ATOM     23  C22 <0> d   1       1.905   2.383   0.870  0.00  0.00     0.300 C 
ATOM     24  C21 <0> d   1       1.115   3.128  -0.209  0.00  0.00     0.264 C 
ATOM     25  N2  <0> d   1      -0.260   2.609  -0.251  0.00  0.00    -0.072 N 
ATOM     26  C20 <0> d   1      -0.267   1.170  -0.547  0.00  0.00     0.264 C 
ATOM     27  C23 <0> d   1      -1.072   3.352  -1.224  0.00  0.00     0.269 C 
ATOM     28  H27 <0> d   1      -0.708   2.754   0.743  0.00  0.00     0.279 HD
ATOM     29  C19 <0> d   1       0.523   0.425   0.531  0.00  0.00     0.300 C 
ENDBRANCH  21  22
ENDBRANCH   9  21
BRANCH   8  30
ATOM     30  O4  <0> d   1       4.983  -0.370  -0.011  0.00  0.00    -0.360 OA
ATOM     31  H26 <0> d   1       4.021  -0.885  -0.148  0.00  0.00     0.217 HD
ENDBRANCH   8  30
TORSDOF 6
