REMARK  10 active torsions:
REMARK  status: ('A' for Active; 'I' for Inactive)
REMARK    1  A    between atoms: O1_2  and  C2_3 
REMARK    2  A    between atoms: C6_7  and  O2_9 
REMARK    3  A    between atoms: O2_9  and  C8_10 
REMARK    4  A    between atoms: C13_16  and  O6_35 
REMARK    5  A    between atoms: C14_17  and  C18_25 
REMARK    6  A    between atoms: C16_20  and  C17_21 
REMARK    7  A    between atoms: C18_25  and  N1_26 
REMARK    8  A    between atoms: N2_29  and  C23_32 
REMARK    9  A    between atoms: C23_32  and  C24_33 
REMARK   10  A    between atoms: C24_33  and  O5_34 
ROOT
ATOM      1  C8  <0> d   1       2.047  -4.460   3.302  0.00  0.00     0.165 A 
ATOM      2  C9  <0> d   1       2.226  -5.862   3.474  0.00  0.00     0.221 A 
ATOM      3  O3  <0> d   1       1.877  -6.657   2.617  0.00  0.00    -0.284 OA
ATOM      4  C10 <0> d   1       2.849  -6.313   4.730  0.00  0.00     0.052 A 
ATOM      5  C11 <0> d   1       3.066  -7.667   4.990  0.00  0.00     0.021 A 
ATOM      6  C12 <0> d   1       3.648  -8.047   6.165  0.00  0.00     0.038 A 
ATOM      7  C13 <0> d   1       4.025  -7.090   7.106  0.00  0.00     0.076 A 
ATOM      8  C14 <0> d   1       3.816  -5.743   6.864  0.00  0.00     0.038 A 
ATOM      9  C15 <0> d   1       3.227  -5.341   5.673  0.00  0.00     0.101 A 
ATOM     10  O4  <0> d   1       3.014  -4.036   5.411  0.00  0.00    -0.301 OA
ATOM     11  C16 <0> d   1       2.452  -3.615   4.271  0.00  0.00     0.197 A 
ENDROOT
BRANCH   8  12
ATOM     12  C18 <0> d   1       4.228  -4.718   7.889  0.00  0.00     0.317 C 
BRANCH  12  13
ATOM     13  N1  <0> d   1       5.611  -4.297   7.633  0.00  0.00     0.096 N 
ATOM     14  C22 <0> d   1       5.969  -3.134   8.457  0.00  0.00     0.300 C 
ATOM     15  C21 <0> d   1       7.394  -2.691   8.118  0.00  0.00     0.265 C 
ATOM     16  N2  <0> d   1       8.325  -3.799   8.373  0.00  0.00    -0.066 N 
ATOM     17  C20 <0> d   1       7.970  -4.944   7.525  0.00  0.00     0.265 C 
ATOM     18  H26 <0> d   1       8.268  -4.069   9.344  0.00  0.00     0.280 HD
ATOM     19  C19 <0> d   1       6.550  -5.406   7.859  0.00  0.00     0.300 C 
BRANCH  16  20
ATOM     20  C23 <0> d   1       9.695  -3.368   8.065  0.00  0.00     0.260 C 
BRANCH  20  21
ATOM     21  C24 <0> d   1      10.110  -2.257   9.031  0.00  0.00     0.192 C 
BRANCH  21  22
ATOM     22  O5  <0> d   1      10.168  -2.779  10.360  0.00  0.00    -0.399 OA
ATOM     23  H24 <0> d   1      10.426  -2.128  11.028  0.00  0.00     0.209 HD
ENDBRANCH  21  22
ENDBRANCH  20  21
ENDBRANCH  16  20
ENDBRANCH  12  13
ENDBRANCH   8  12
BRANCH   7  24
ATOM     24  O6  <0> d   1       4.602  -7.483   8.271  0.00  0.00    -0.360 OA
ATOM     25  H25 <0> d   1       5.566  -7.541   8.232  0.00  0.00     0.217 HD
ENDBRANCH   7  24
BRANCH  11  26
ATOM     26  C17 <0> d   1       2.260  -2.135   4.064  0.00  0.00     0.442 C 
ATOM     27  F1  <0> d   1       1.506  -1.920   2.905  0.00  0.00    -0.164 F 
ATOM     28  F2  <0> d   1       1.588  -1.593   5.165  0.00  0.00    -0.164 F 
ATOM     29  F3  <0> d   1       3.508  -1.516   3.929  0.00  0.00    -0.164 F 
ENDBRANCH  11  26
BRANCH   1  30
ATOM     30  O2  <0> d   1       1.477  -3.977   2.164  0.00  0.00    -0.304 OA
BRANCH  30  31
ATOM     31  C6  <0> d   1       0.170  -4.264   1.934  0.00  0.00     0.079 A 
ATOM     32  C5  <0> d   1      -0.575  -4.930   2.898  0.00  0.00     0.037 A 
ATOM     33  C4  <0> d   1      -1.905  -5.222   2.665  0.00  0.00     0.005 A 
ATOM     34  C3  <0> d   1      -2.497  -4.854   1.472  0.00  0.00     0.037 A 
ATOM     35  C2  <0> d   1      -1.757  -4.188   0.505  0.00  0.00     0.070 A 
ATOM     36  C7  <0> d   1      -0.421  -3.898   0.734  0.00  0.00     0.074 A 
BRANCH  35  37
ATOM     37  O1  <0> d   1      -2.340  -3.825  -0.668  0.00  0.00    -0.356 OA
ATOM     38  C1  <0> d   1      -3.720  -4.157  -0.836  0.00  0.00     0.210 C 
ENDBRANCH  35  37
ENDBRANCH  30  31
ENDBRANCH   1  30
TORSDOF 10
