REMARK  7 active torsions:
REMARK  status: ('A' for Active; 'I' for Inactive)
REMARK    1  A    between atoms: C3_3  and  C13_21 
REMARK    2  A    between atoms: C4_4  and  C5_8 
REMARK    3  A    between atoms: C8_11  and  O2_15 
REMARK    4  A    between atoms: O2_15  and  C11_16 
REMARK    5  A    between atoms: C11_16  and  C12_17 
REMARK       I    between atoms: C12_17  and  N3_19 
REMARK    6  A    between atoms: N3_19  and  N4_20 
REMARK    7  A    between atoms: C16_24  and  O4_27 
ROOT
ATOM      1  C5  <0> d   1      -0.244  -3.357   1.484  0.00  0.00     0.032 A 
ATOM      2  C6  <0> d   1      -1.204  -3.392   2.493  0.00  0.00     0.019 A 
ATOM      3  C7  <0> d   1      -1.336  -4.517   3.279  0.00  0.00     0.038 A 
ATOM      4  C8  <0> d   1      -0.515  -5.617   3.068  0.00  0.00     0.072 A 
ATOM      5  C9  <0> d   1       0.443  -5.591   2.065  0.00  0.00     0.077 A 
ATOM      6  C10 <0> d   1       0.579  -4.467   1.268  0.00  0.00     0.122 A 
ATOM      7  O1  <0> d   1       1.513  -4.442   0.281  0.00  0.00    -0.191 OA
ENDROOT
BRANCH   1   8
ATOM      8  C4  <0> d   1      -0.099  -2.149   0.637  0.00  0.00     0.103 A 
ATOM      9  C3  <0> d   1      -0.029  -0.810   1.097  0.00  0.00     0.029 A 
ATOM     10  C2  <0> d   1       0.101  -0.007   0.004  0.00  0.00     0.037 A 
ATOM     11  C1  <0> d   1       0.212   1.496   0.014  0.00  0.00     0.070 C 
ATOM     12  N2  <0> d   1       0.106  -0.796  -1.090  0.00  0.00    -0.281 N 
ATOM     13  N1  <0> d   1      -0.013  -2.128  -0.676  0.00  0.00    -0.173 NA
ATOM     14  H1  <0> d   1       0.183  -0.493  -2.009  0.00  0.00     0.189 HD
BRANCH   9  15
ATOM     15  C13 <0> d   1      -0.086  -0.364   2.511  0.00  0.00    -0.021 A 
ATOM     16  C18 <0> d   1      -1.174   0.380   2.965  0.00  0.00     0.015 A 
ATOM     17  C17 <0> d   1      -1.228   0.787   4.282  0.00  0.00     0.037 A 
ATOM     18  C16 <0> d   1      -0.194   0.468   5.151  0.00  0.00     0.068 A 
ATOM     19  C15 <0> d   1       0.894  -0.267   4.700  0.00  0.00     0.037 A 
ATOM     20  C14 <0> d   1       0.950  -0.683   3.386  0.00  0.00     0.015 A 
BRANCH  18  21
ATOM     21  O4  <0> d   1      -0.246   0.876   6.447  0.00  0.00    -0.356 OA
ATOM     22  C19 <0> d   1      -1.394   1.629   6.844  0.00  0.00     0.210 C 
ENDBRANCH  18  21
ENDBRANCH   9  15
ENDBRANCH   1   8
BRANCH   4  23
ATOM     23  O2  <0> d   1      -0.651  -6.723   3.846  0.00  0.00    -0.342 OA
BRANCH  23  24
ATOM     24  C11 <0> d   1       0.226  -7.819   3.574  0.00  0.00     0.279 C 
BRANCH  24  25
ATOM     25  C12 <0> d   1      -0.070  -8.947   4.529  0.00  0.00     0.255 C 
ATOM     26  O3  <0> d   1      -0.944  -8.824   5.361  0.00  0.00    -0.270 OA
ATOM     27  N3  <0> d   1       0.639 -10.091   4.460  0.00  0.00    -0.292 N 
ATOM     28  H10 <0> d   1       1.338 -10.189   3.795  0.00  0.00     0.183 HD
BRANCH  27  29
ATOM     29  N4  <0> d   1       0.371 -11.114   5.325  0.00  0.00    -0.247 NA
ATOM     30  H11 <0> d   1       0.978 -11.901   5.154  0.00  0.00     0.143 HD
ATOM     31  H12 <0> d   1       0.442 -10.804   6.283  0.00  0.00     0.143 HD
ENDBRANCH  27  29
ENDBRANCH  24  25
ENDBRANCH  23  24
ENDBRANCH   4  23
TORSDOF 7
