REMARK  7 active torsions:
REMARK  status: ('A' for Active; 'I' for Inactive)
REMARK    1  A    between atoms: C6_6  and  C7_7 
REMARK    2  A    between atoms: C13_14  and  O4_28 
REMARK    3  A    between atoms: C14_15  and  C16_18 
REMARK    4  A    between atoms: C16_18  and  N1_19 
REMARK    5  A    between atoms: N2_22  and  C21_25 
REMARK    6  A    between atoms: C21_25  and  C22_26 
REMARK    7  A    between atoms: C22_26  and  O3_27 
ROOT
ATOM      1  C7  <0> d   1       1.569  -2.016  -1.053  0.00  0.00     0.053 C 
ATOM      2  C8  <0> d   1       1.126  -0.734  -1.024  0.00  0.00     0.127 A 
ATOM      3  C9  <0> d   1      -0.270  -0.294  -1.169  0.00  0.00     0.218 A 
ATOM      4  O1  <0> d   1      -1.258  -0.988  -1.339  0.00  0.00    -0.284 OA
ATOM      5  C10 <0> d   1      -0.207   1.175  -1.064  0.00  0.00     0.051 A 
ATOM      6  C11 <0> d   1      -1.176   2.179  -1.114  0.00  0.00     0.021 A 
ATOM      7  C12 <0> d   1      -0.808   3.488  -0.986  0.00  0.00     0.038 A 
ATOM      8  C13 <0> d   1       0.531   3.823  -0.796  0.00  0.00     0.076 A 
ATOM      9  C14 <0> d   1       1.502   2.837  -0.739  0.00  0.00     0.038 A 
ATOM     10  C15 <0> d   1       1.145   1.501  -0.873  0.00  0.00     0.101 A 
ATOM     11  O2  <0> d   1       1.887   0.372  -0.855  0.00  0.00    -0.305 OA
ENDROOT
BRANCH   9  12
ATOM     12  C16 <0> d   1       2.947   3.214  -0.533  0.00  0.00     0.317 C 
BRANCH  12  13
ATOM     13  N1  <0> d   1       3.588   3.428  -1.837  0.00  0.00     0.096 N 
ATOM     14  C20 <0> d   1       4.922   4.024  -1.677  0.00  0.00     0.300 C 
ATOM     15  C19 <0> d   1       5.522   4.303  -3.057  0.00  0.00     0.265 C 
ATOM     16  N2  <0> d   1       5.597   3.049  -3.819  0.00  0.00    -0.066 N 
ATOM     17  C18 <0> d   1       4.263   2.453  -3.979  0.00  0.00     0.265 C 
ATOM     18  H24 <0> d   1       6.218   2.342  -3.250  0.00  0.00     0.280 HD
ATOM     19  C17 <0> d   1       3.663   2.173  -2.599  0.00  0.00     0.300 C 
BRANCH  16  20
ATOM     20  C21 <0> d   1       6.238   3.263  -5.123  0.00  0.00     0.260 C 
BRANCH  20  21
ATOM     21  C22 <0> d   1       5.298   4.061  -6.029  0.00  0.00     0.192 C 
BRANCH  21  22
ATOM     22  O3  <0> d   1       5.139   5.381  -5.505  0.00  0.00    -0.399 OA
ATOM     23  H22 <0> d   1       4.495   6.105  -6.025  0.00  0.00     0.209 HD
ENDBRANCH  21  22
ENDBRANCH  20  21
ENDBRANCH  16  20
ENDBRANCH  12  13
ENDBRANCH   9  12
BRANCH   8  24
ATOM     24  O4  <0> d   1       0.886   5.126  -0.665  0.00  0.00    -0.360 OA
ATOM     25  H23 <0> d   1       1.942   5.396  -0.515  0.00  0.00     0.217 HD
ENDBRANCH   8  24
BRANCH   1  26
ATOM     26  C6  <0> d   1       3.010  -2.296  -1.002  0.00  0.00    -0.033 A 
ATOM     27  C1  <0> d   1       3.479  -3.604  -1.175  0.00  0.00     0.014 A 
ATOM     28  C2  <0> d   1       4.832  -3.859  -1.131  0.00  0.00     0.043 A 
ATOM     29  C3  <0> d   1       5.729  -2.825  -0.905  0.00  0.00     0.116 A 
ATOM     30  C4  <0> d   1       5.271  -1.527  -0.728  0.00  0.00     0.043 A 
ATOM     31  F1  <0> d   1       7.054  -3.082  -0.858  0.00  0.00    -0.206 F 
ATOM     32  C5  <0> d   1       3.921  -1.257  -0.775  0.00  0.00     0.014 A 
ENDBRANCH   1  26
TORSDOF 7
