REMARK  6 active torsions:
REMARK  status: ('A' for Active; 'I' for Inactive)
REMARK    1  A    between atoms: C4_4  and  C15_18 
REMARK    2  A    between atoms: C9_10  and  C10_11 
REMARK    3  A    between atoms: C15_18  and  N2_19 
REMARK    4  A    between atoms: N3_22  and  C20_25 
REMARK    5  A    between atoms: C20_25  and  C21_26 
REMARK    6  A    between atoms: C21_26  and  O3_27 
ROOT
ATOM      1  C1  <0> d   1      -0.024   1.392  -0.053  0.00  0.00     0.021 A 
ATOM      2  C2  <0> d   1       1.150   2.091  -0.080  0.00  0.00     0.041 A 
ATOM      3  C3  <0> d   1       2.366   1.413  -0.102  0.00  0.00     0.118 A 
ATOM      4  C4  <0> d   1       2.402   0.028  -0.095  0.00  0.00     0.039 A 
ATOM      5  C5  <0> d   1       1.218  -0.697  -0.067  0.00  0.00     0.101 A 
ATOM      6  C6  <0> d   1      -0.003  -0.003  -0.046  0.00  0.00     0.051 A 
ATOM      7  C7  <0> d   1      -1.063  -1.027  -0.019  0.00  0.00     0.218 A 
ATOM      8  O1  <0> d   1      -2.269  -0.852   0.004  0.00  0.00    -0.284 OA
ATOM      9  C8  <0> d   1      -0.337  -2.310  -0.027  0.00  0.00     0.127 A 
ATOM     10  C9  <0> d   1      -0.893  -3.545  -0.010  0.00  0.00     0.053 C 
ATOM     11  O2  <0> d   1       0.986  -2.029  -0.057  0.00  0.00    -0.305 OA
ATOM     12  O4  <0> d   1       3.527   2.116  -0.129  0.00  0.00    -0.191 OA
ENDROOT
BRANCH   4  13
ATOM     13  C15 <0> d   1       3.725  -0.692  -0.119  0.00  0.00     0.279 C 
BRANCH  13  14
ATOM     14  N2  <0> d   1       4.184  -0.919   1.258  0.00  0.00    -0.064 N 
ATOM     15  C19 <0> d   1       5.412  -1.724   1.238  0.00  0.00     0.265 C 
ATOM     16  C18 <0> d   1       5.880  -1.976   2.673  0.00  0.00     0.300 C 
ATOM     17  N3  <0> d   1       6.128  -0.689   3.338  0.00  0.00     0.093 N 
ATOM     18  C17 <0> d   1       4.914   0.138   3.344  0.00  0.00     0.300 C 
ATOM     19  C16 <0> d   1       4.454   0.373   1.903  0.00  0.00     0.265 C 
ATOM     20  H23 <0> d   1       3.469  -1.409   1.774  0.00  0.00     0.280 HD
BRANCH  17  21
ATOM     21  C20 <0> d   1       6.635  -0.891   4.702  0.00  0.00     0.298 C 
BRANCH  21  22
ATOM     22  C21 <0> d   1       8.020  -1.536   4.642  0.00  0.00     0.194 C 
BRANCH  22  23
ATOM     23  O3  <0> d   1       8.941  -0.632   4.027  0.00  0.00    -0.399 OA
ATOM     24  H22 <0> d   1       9.841  -0.976   3.956  0.00  0.00     0.209 HD
ENDBRANCH  22  23
ENDBRANCH  21  22
ENDBRANCH  17  21
ENDBRANCH  13  14
ENDBRANCH   4  13
BRANCH  10  25
ATOM     25  C10 <0> d   1      -0.040  -4.737  -0.136  0.00  0.00    -0.031 A 
ATOM     26  C14 <0> d   1       1.358  -4.626  -0.150  0.00  0.00     0.030 A 
ATOM     27  C13 <0> d   1       2.118  -5.772  -0.265  0.00  0.00     0.117 A 
ATOM     28  N1  <0> d   1       1.547  -6.957  -0.370  0.00  0.00    -0.273 NA
ATOM     29  C12 <0> d   1       0.237  -7.107  -0.367  0.00  0.00     0.117 A 
ATOM     30  C11 <0> d   1      -0.602  -6.018  -0.251  0.00  0.00     0.030 A 
ENDBRANCH  10  25
TORSDOF 6
