REMARK  8 active torsions:
REMARK  status: ('A' for Active; 'I' for Inactive)
REMARK    1  A    between atoms: O1_2  and  C2_3 
REMARK    2  A    between atoms: C5_6  and  C8_9 
REMARK    3  A    between atoms: C13_14  and  O5_30 
REMARK    4  A    between atoms: C14_15  and  C17_20 
REMARK    5  A    between atoms: C17_20  and  N1_21 
REMARK    6  A    between atoms: N2_24  and  C22_27 
REMARK    7  A    between atoms: C22_27  and  C23_28 
REMARK    8  A    between atoms: C23_28  and  O4_29 
ROOT
ATOM      1  C8  <0> d   1      -1.206   1.973   0.103  0.00  0.00     0.051 A 
ATOM      2  C9  <0> d   1      -0.980   0.624   0.057  0.00  0.00     0.032 A 
ATOM      3  C10 <0> d   1       0.358   0.155   0.005  0.00  0.00    -0.000 A 
ATOM      4  C11 <0> d   1       0.622  -1.222  -0.048  0.00  0.00     0.017 A 
ATOM      5  C12 <0> d   1       1.910  -1.667  -0.092  0.00  0.00     0.038 A 
ATOM      6  C13 <0> d   1       2.970  -0.763  -0.084  0.00  0.00     0.076 A 
ATOM      7  C14 <0> d   1       2.730   0.600  -0.032  0.00  0.00     0.038 A 
ATOM      8  C15 <0> d   1       1.425   1.072   0.014  0.00  0.00     0.100 A 
ATOM      9  O2  <0> d   1       1.191   2.402   0.064  0.00  0.00    -0.273 OA
ATOM     10  C16 <0> d   1      -0.061   2.887   0.108  0.00  0.00     0.299 A 
ATOM     11  O3  <0> d   1      -0.245   4.089   0.154  0.00  0.00    -0.259 OA
ENDROOT
BRANCH   7  12
ATOM     12  C17 <0> d   1       3.883   1.570  -0.025  0.00  0.00     0.317 C 
BRANCH  12  13
ATOM     13  N1  <0> d   1       4.226   1.932  -1.407  0.00  0.00     0.096 N 
ATOM     14  C21 <0> d   1       5.182   3.049  -1.436  0.00  0.00     0.303 C 
ATOM     15  C20 <0> d   1       5.452   3.447  -2.889  0.00  0.00     0.302 C 
ATOM     16  N2  <0> d   1       5.978   2.288  -3.623  0.00  0.00     0.093 N 
ATOM     17  C19 <0> d   1       5.023   1.171  -3.593  0.00  0.00     0.302 C 
ATOM     18  C18 <0> d   1       4.753   0.773  -2.140  0.00  0.00     0.303 C 
BRANCH  16  19
ATOM     19  C22 <0> d   1       6.322   2.650  -5.004  0.00  0.00     0.298 C 
BRANCH  19  20
ATOM     20  C23 <0> d   1       7.631   3.441  -5.013  0.00  0.00     0.194 C 
BRANCH  20  21
ATOM     21  O4  <0> d   1       8.697   2.603  -4.559  0.00  0.00    -0.399 OA
ATOM     22  H25 <0> d   1       9.720   3.001  -4.497  0.00  0.00     0.209 HD
ENDBRANCH  20  21
ENDBRANCH  19  20
ENDBRANCH  16  19
ENDBRANCH  12  13
ENDBRANCH   7  12
BRANCH   6  23
ATOM     23  O5  <0> d   1       4.247  -1.220  -0.128  0.00  0.00    -0.360 OA
ATOM     24  H26 <0> d   1       5.087  -0.510  -0.123  0.00  0.00     0.217 HD
ENDBRANCH   6  23
BRANCH   1  25
ATOM     25  C5  <0> d   1      -2.590   2.501   0.152  0.00  0.00    -0.020 A 
ATOM     26  C4  <0> d   1      -2.945   3.443   1.118  0.00  0.00     0.015 A 
ATOM     27  C3  <0> d   1      -4.233   3.932   1.161  0.00  0.00     0.037 A 
ATOM     28  C2  <0> d   1      -5.177   3.488   0.244  0.00  0.00     0.068 A 
ATOM     29  C7  <0> d   1      -4.827   2.551  -0.719  0.00  0.00     0.037 A 
ATOM     30  C6  <0> d   1      -3.539   2.062  -0.771  0.00  0.00     0.015 A 
BRANCH  28  31
ATOM     31  O1  <0> d   1      -6.446   3.972   0.290  0.00  0.00    -0.356 OA
ATOM     32  C1  <0> d   1      -7.366   3.472  -0.682  0.00  0.00     0.210 C 
ENDBRANCH  28  31
ENDBRANCH   1  25
TORSDOF 8
