REMARK  5 active torsions:
REMARK  status: ('A' for Active; 'I' for Inactive)
REMARK    1  A    between atoms: C4_4  and  C7_7 
REMARK    2  A    between atoms: C12_12  and  O1_13 
REMARK    3  A    between atoms: C13_14  and  C16_19 
REMARK    4  A    between atoms: C16_19  and  N1_20 
REMARK    5  A    between atoms: N2_23  and  C21_26 
ROOT
ATOM      1  C7  <0> d   1       3.743  -0.854   0.156  0.00  0.00     0.010 A 
ATOM      2  C8  <0> d   1       4.193  -1.752   1.117  0.00  0.00     0.053 A 
ATOM      3  C9  <0> d   1       5.468  -2.288   1.022  0.00  0.00     0.091 A 
ATOM      4  C10 <0> d   1       6.300  -1.918  -0.051  0.00  0.00     0.009 A 
ATOM      5  C11 <0> d   1       5.843  -1.013  -1.016  0.00  0.00     0.052 A 
ATOM      6  C12 <0> d   1       4.572  -0.490  -0.916  0.00  0.00     0.077 A 
ATOM      7  C13 <0> d   1       7.645  -2.493  -0.138  0.00  0.00    -0.011 A 
ATOM      8  C14 <0> d   1       8.033  -3.365   0.828  0.00  0.00     0.092 A 
ATOM      9  C15 <0> d   1       7.147  -3.692   1.876  0.00  0.00     0.288 A 
ATOM     10  O2  <0> d   1       7.508  -4.475   2.736  0.00  0.00    -0.260 OA
ATOM     11  O3  <0> d   1       5.917  -3.162   1.950  0.00  0.00    -0.275 OA
ENDROOT
BRANCH   7  12
ATOM     12  C16 <0> d   1       8.571  -2.127  -1.268  0.00  0.00     0.312 C 
BRANCH  12  13
ATOM     13  N1  <0> d   1       8.291  -2.984  -2.428  0.00  0.00     0.095 N 
ATOM     14  C20 <0> d   1       9.004  -2.506  -3.620  0.00  0.00     0.292 C 
ATOM     15  C19 <0> d   1       8.547  -3.312  -4.841  0.00  0.00     0.154 C 
ATOM     16  N2  <0> d   1       8.717  -4.743  -4.548  0.00  0.00    -0.362 N 
ATOM     17  C18 <0> d   1       8.146  -5.269  -3.298  0.00  0.00     0.154 C 
ATOM     18  C17 <0> d   1       8.619  -4.386  -2.138  0.00  0.00     0.292 C 
BRANCH  16  19
ATOM     19  C21 <0> d   1       9.398  -5.576  -5.427  0.00  0.00     0.125 A 
ATOM     20  N3  <0> d   1      10.074  -5.051  -6.437  0.00  0.00    -0.244 NA
ATOM     21  C25 <0> d   1      10.739  -5.806  -7.292  0.00  0.00     0.119 A 
ATOM     22  C24 <0> d   1      10.742  -7.181  -7.168  0.00  0.00     0.019 A 
ATOM     23  C23 <0> d   1      10.040  -7.771  -6.125  0.00  0.00     0.005 A 
ATOM     24  C22 <0> d   1       9.357  -6.954  -5.242  0.00  0.00     0.050 A 
ENDBRANCH  16  19
ENDBRANCH  12  13
ENDBRANCH   7  12
BRANCH   6  25
ATOM     25  O1  <0> d   1       4.122   0.384  -1.855  0.00  0.00    -0.360 OA
ATOM     26  H8  <0> d   1       4.310   1.310  -1.652  0.00  0.00     0.217 HD
ENDBRANCH   6  25
BRANCH   1  27
ATOM     27  C4  <0> d   1       2.380  -0.283   0.261  0.00  0.00    -0.023 A 
ATOM     28  C3  <0> d   1       2.188   1.094   0.156  0.00  0.00     0.012 A 
ATOM     29  C2  <0> d   1       0.915   1.620   0.254  0.00  0.00     0.001 A 
ATOM     30  C1  <0> d   1      -0.168   0.784   0.457  0.00  0.00     0.000 A 
ATOM     31  C6  <0> d   1       0.017  -0.583   0.562  0.00  0.00     0.001 A 
ATOM     32  C5  <0> d   1       1.284  -1.121   0.465  0.00  0.00     0.012 A 
ENDBRANCH   1  27
TORSDOF 5
