REMARK  8 active torsions:
REMARK  status: ('A' for Active; 'I' for Inactive)
REMARK    1  A    between atoms: O1_2  and  C2_3 
REMARK    2  A    between atoms: C6_7  and  C9_11 
REMARK    3  A    between atoms: C7_8  and  O2_9 
REMARK    4  A    between atoms: C16_19  and  C18_22 
REMARK    5  A    between atoms: C18_22  and  N1_23 
REMARK    6  A    between atoms: N2_26  and  C23_29 
REMARK    7  A    between atoms: C23_29  and  C24_30 
REMARK    8  A    between atoms: C24_30  and  O5_31 
ROOT
ATOM      1  C9  <0> d   1       4.472   2.624   0.657  0.00  0.00     0.055 C 
ATOM      2  C10 <0> d   1       4.239   3.939   0.412  0.00  0.00     0.128 A 
ATOM      3  C11 <0> d   1       5.258   4.986   0.253  0.00  0.00     0.218 A 
ATOM      4  O3  <0> d   1       6.470   4.863   0.310  0.00  0.00    -0.284 OA
ATOM      5  C12 <0> d   1       4.487   6.218   0.006  0.00  0.00     0.051 A 
ATOM      6  C13 <0> d   1       4.855   7.544  -0.225  0.00  0.00     0.021 A 
ATOM      7  C14 <0> d   1       3.893   8.494  -0.419  0.00  0.00     0.041 A 
ATOM      8  C15 <0> d   1       2.546   8.141  -0.388  0.00  0.00     0.118 A 
ATOM      9  C16 <0> d   1       2.166   6.829  -0.160  0.00  0.00     0.041 A 
ATOM     10  C17 <0> d   1       3.133   5.851   0.040  0.00  0.00     0.101 A 
ATOM     11  O4  <0> d   1       3.026   4.525   0.277  0.00  0.00    -0.305 OA
ATOM     12  O6  <0> d   1       1.597   9.092  -0.582  0.00  0.00    -0.191 OA
ENDROOT
BRANCH   1  13
ATOM     13  C6  <0> d   1       3.357   1.670   0.661  0.00  0.00     0.003 A 
ATOM     14  C5  <0> d   1       2.037   2.129   0.761  0.00  0.00     0.014 A 
ATOM     15  C4  <0> d   1       0.995   1.229   0.765  0.00  0.00     0.004 A 
ATOM     16  C3  <0> d   1       1.242  -0.131   0.670  0.00  0.00     0.040 A 
ATOM     17  C2  <0> d   1       2.542  -0.601   0.570  0.00  0.00     0.102 A 
ATOM     18  C7  <0> d   1       3.607   0.292   0.565  0.00  0.00     0.111 A 
BRANCH  17  19
ATOM     19  O1  <0> d   1       2.775  -1.938   0.477  0.00  0.00    -0.353 OA
ATOM     20  C1  <0> d   1       1.634  -2.798   0.489  0.00  0.00     0.210 C 
ENDBRANCH  17  19
BRANCH  18  21
ATOM     21  O2  <0> d   1       4.881  -0.166   0.467  0.00  0.00    -0.352 OA
ATOM     22  C8  <0> d   1       5.420  -0.309  -0.848  0.00  0.00     0.210 C 
ENDBRANCH  18  21
ENDBRANCH   1  13
BRANCH   9  23
ATOM     23  C18 <0> d   1       0.705   6.462  -0.129  0.00  0.00     0.317 C 
BRANCH  23  24
ATOM     24  N1  <0> d   1       0.198   6.589   1.244  0.00  0.00     0.096 N 
ATOM     25  C22 <0> d   1      -1.267   6.471   1.277  0.00  0.00     0.303 C 
ATOM     26  C21 <0> d   1      -1.761   6.688   2.709  0.00  0.00     0.302 C 
ATOM     27  N2  <0> d   1      -1.136   5.697   3.596  0.00  0.00     0.093 N 
ATOM     28  C20 <0> d   1       0.329   5.815   3.563  0.00  0.00     0.302 C 
ATOM     29  C19 <0> d   1       0.823   5.598   2.131  0.00  0.00     0.303 C 
BRANCH  27  30
ATOM     30  C23 <0> d   1      -1.643   5.824   4.969  0.00  0.00     0.298 C 
BRANCH  30  31
ATOM     31  C24 <0> d   1      -0.976   7.021   5.650  0.00  0.00     0.194 C 
BRANCH  31  32
ATOM     32  O5  <0> d   1      -1.369   8.225   4.989  0.00  0.00    -0.399 OA
ATOM     33  H27 <0> d   1      -0.987   9.195   5.341  0.00  0.00     0.209 HD
ENDBRANCH  31  32
ENDBRANCH  30  31
ENDBRANCH  27  30
ENDBRANCH  23  24
ENDBRANCH   9  23
TORSDOF 8
