REMARK  5 active torsions:
REMARK  status: ('A' for Active; 'I' for Inactive)
REMARK    1  A    between atoms: C3_3  and  O4_22 
REMARK    2  A    between atoms: C9_10  and  C11_13 
REMARK    3  A    between atoms: C11_13  and  N1_14 
REMARK    4  A    between atoms: O4_22  and  C18_23 
REMARK    5  A    between atoms: C22_27  and  O5_29 
ROOT
ATOM      1  C1  <0> d   1       4.727   5.439  -4.480  0.00  0.00     0.080 C 
ATOM      2  C2  <0> d   1       3.276   5.752  -4.737  0.00  0.00     0.087 A 
ATOM      3  C3  <0> d   1       2.899   6.088  -5.987  0.00  0.00     0.156 A 
ATOM      4  C4  <0> d   1       1.531   6.377  -6.255  0.00  0.00     0.221 A 
ATOM      5  O1  <0> d   1       1.154   6.685  -7.373  0.00  0.00    -0.284 OA
ATOM      6  C5  <0> d   1       0.593   6.305  -5.122  0.00  0.00     0.052 A 
ATOM      7  C6  <0> d   1      -0.765   6.586  -5.282  0.00  0.00     0.021 A 
ATOM      8  C7  <0> d   1      -1.604   6.508  -4.208  0.00  0.00     0.041 A 
ATOM      9  C8  <0> d   1      -1.113   6.150  -2.954  0.00  0.00     0.118 A 
ATOM     10  C9  <0> d   1       0.232   5.868  -2.778  0.00  0.00     0.039 A 
ATOM     11  C10 <0> d   1       1.099   5.948  -3.859  0.00  0.00     0.101 A 
ATOM     12  O2  <0> d   1       2.413   5.684  -3.715  0.00  0.00    -0.311 OA
ATOM     13  O3  <0> d   1      -1.959   6.077  -1.895  0.00  0.00    -0.191 OA
ENDROOT
BRANCH   3  14
ATOM     14  O4  <0> d   1       3.820   6.141  -6.989  0.00  0.00    -0.304 OA
BRANCH  14  15
ATOM     15  C18 <0> d   1       4.046   5.011  -7.707  0.00  0.00     0.079 A 
ATOM     16  C23 <0> d   1       4.974   5.017  -8.737  0.00  0.00     0.074 A 
ATOM     17  C22 <0> d   1       5.203   3.861  -9.469  0.00  0.00     0.070 A 
ATOM     18  C21 <0> d   1       4.503   2.702  -9.168  0.00  0.00     0.037 A 
ATOM     19  C20 <0> d   1       3.578   2.698  -8.141  0.00  0.00     0.005 A 
ATOM     20  C19 <0> d   1       3.352   3.846  -7.408  0.00  0.00     0.037 A 
BRANCH  17  21
ATOM     21  O5  <0> d   1       6.113   3.865 -10.478  0.00  0.00    -0.356 OA
ATOM     22  C24 <0> d   1       6.297   2.639 -11.189  0.00  0.00     0.210 C 
ENDBRANCH  17  21
ENDBRANCH  14  15
ENDBRANCH   3  14
BRANCH  10  23
ATOM     23  C11 <0> d   1       0.752   5.481  -1.418  0.00  0.00     0.279 C 
BRANCH  23  24
ATOM     24  N1  <0> d   1       0.678   4.023  -1.262  0.00  0.00    -0.067 N 
ATOM     25  C16 <0> d   1      -0.717   3.564  -1.251  0.00  0.00     0.235 C 
ATOM     26  C15 <0> d   1      -0.752   2.034  -1.234  0.00  0.00     0.032 C 
ATOM     27  C14 <0> d   1      -0.019   1.526   0.010  0.00  0.00    -0.015 C 
ATOM     28  C13 <0> d   1       1.417   2.057  -0.000  0.00  0.00     0.032 C 
ATOM     29  C17 <0> d   1       0.002  -0.004   0.002  0.00  0.00     0.010 C 
ATOM     30  C12 <0> d   1       1.390   3.586  -0.053  0.00  0.00     0.235 C 
ATOM     31  H27 <0> d   1       1.176   3.563  -2.128  0.00  0.00     0.280 HD
ENDBRANCH  23  24
ENDBRANCH  10  23
TORSDOF 5
