REMARK  5 active torsions:
REMARK  status: ('A' for Active; 'I' for Inactive)
REMARK    1  A    between atoms: C3_4  and  C11_13 
REMARK    2  A    between atoms: C8_9  and  O1_11 
REMARK    3  A    between atoms: C17_20  and  O4_32 
REMARK    4  A    between atoms: C18_21  and  C20_24 
REMARK    5  A    between atoms: C20_24  and  N2_25 
ROOT
ATOM      1  C11 <0> d   1       3.241   4.019   5.401  0.00  0.00     0.055 C 
ATOM      2  C12 <0> d   1       3.903   3.157   4.579  0.00  0.00     0.128 A 
ATOM      3  C13 <0> d   1       5.267   3.255   4.199  0.00  0.00     0.218 A 
ATOM      4  O2  <0> d   1       6.070   4.111   4.535  0.00  0.00    -0.284 OA
ATOM      5  C14 <0> d   1       5.506   2.103   3.313  0.00  0.00     0.051 A 
ATOM      6  C15 <0> d   1       6.624   1.638   2.621  0.00  0.00     0.021 A 
ATOM      7  C16 <0> d   1       6.531   0.507   1.860  0.00  0.00     0.038 A 
ATOM      8  C17 <0> d   1       5.326  -0.185   1.777  0.00  0.00     0.076 A 
ATOM      9  C18 <0> d   1       4.205   0.267   2.455  0.00  0.00     0.038 A 
ATOM     10  C19 <0> d   1       4.284   1.415   3.233  0.00  0.00     0.101 A 
ATOM     11  O3  <0> d   1       3.370   2.062   3.987  0.00  0.00    -0.305 OA
ENDROOT
BRANCH   1  12
ATOM     12  C3  <0> d   1       1.830   3.797   5.709  0.00  0.00    -0.005 A 
ATOM     13  C2  <0> d   1       1.033   2.773   5.244  0.00  0.00     0.103 A 
ATOM     14  N1  <0> d   1      -0.216   2.905   5.753  0.00  0.00    -0.360 N 
ATOM     15  C1  <0> d   1      -1.330   1.993   5.479  0.00  0.00     0.156 C 
ATOM     16  C5  <0> d   1      -0.294   4.021   6.563  0.00  0.00     0.045 A 
ATOM     17  C4  <0> d   1       0.971   4.629   6.574  0.00  0.00     0.005 A 
ATOM     18  C6  <0> d   1      -1.330   4.587   7.299  0.00  0.00     0.033 A 
ATOM     19  C9  <0> d   1       1.185   5.787   7.317  0.00  0.00     0.051 A 
ATOM     20  C8  <0> d   1       0.144   6.335   8.043  0.00  0.00     0.069 A 
ATOM     21  C7  <0> d   1      -1.110   5.733   8.031  0.00  0.00     0.039 A 
BRANCH  20  22
ATOM     22  O1  <0> d   1       0.346   7.466   8.771  0.00  0.00    -0.356 OA
ATOM     23  C10 <0> d   1      -0.773   7.978   9.498  0.00  0.00     0.210 C 
ENDBRANCH  20  22
ENDBRANCH   1  12
BRANCH   9  24
ATOM     24  C20 <0> d   1       2.905  -0.488   2.352  0.00  0.00     0.317 C 
BRANCH  24  25
ATOM     25  N2  <0> d   1       2.123   0.034   1.224  0.00  0.00     0.096 N 
ATOM     26  C24 <0> d   1       2.103   1.504   1.232  0.00  0.00     0.300 C 
ATOM     27  C23 <0> d   1       1.348   2.008  -0.000  0.00  0.00     0.264 C 
ATOM     28  N3  <0> d   1      -0.018   1.465   0.010  0.00  0.00    -0.072 N 
ATOM     29  C22 <0> d   1       0.002  -0.004   0.002  0.00  0.00     0.264 C 
ATOM     30  C25 <0> d   1      -0.800   1.987  -1.118  0.00  0.00     0.269 C 
ATOM     31  H28 <0> d   1      -0.507   1.793   0.939  0.00  0.00     0.279 HD
ATOM     32  C21 <0> d   1       0.757  -0.508   1.234  0.00  0.00     0.300 C 
ENDBRANCH  24  25
ENDBRANCH   9  24
BRANCH   8  33
ATOM     33  O4  <0> d   1       5.246  -1.311   1.022  0.00  0.00    -0.360 OA
ATOM     34  H27 <0> d   1       4.296  -1.861   0.953  0.00  0.00     0.217 HD
ENDBRANCH   8  33
TORSDOF 5
