REMARK  10 active torsions:
REMARK  status: ('A' for Active; 'I' for Inactive)
REMARK    1  A    between atoms: C3_3  and  C19_25 
REMARK    2  A    between atoms: C8_9  and  O3_13 
REMARK    3  A    between atoms: O3_13  and  C11_14 
REMARK    4  A    between atoms: C11_14  and  C12_15 
REMARK    5  A    between atoms: C12_15  and  N1_16 
REMARK    6  A    between atoms: N2_19  and  C17_22 
REMARK    7  A    between atoms: C17_22  and  C18_23 
REMARK    8  A    between atoms: C18_23  and  O4_24 
REMARK    9  A    between atoms: C22_28  and  O6_33 
REMARK   10  A    between atoms: C23_29  and  O5_31 
ROOT
ATOM      1  C1  <0> d   1       0.157   1.472  -0.571  0.00  0.00     0.077 C 
ATOM      2  C2  <0> d   1       0.137  -0.030  -0.447  0.00  0.00     0.065 C 
ATOM      3  C3  <0> d   1      -1.064  -0.660  -0.366  0.00  0.00     0.055 C 
ATOM      4  C4  <0> d   1      -1.071  -2.129  -0.229  0.00  0.00     0.198 C 
ATOM      5  O1  <0> d   1      -2.087  -2.787  -0.375  0.00  0.00    -0.286 OA
ATOM      6  C5  <0> d   1       0.225  -2.754   0.096  0.00  0.00     0.049 A 
ATOM      7  C6  <0> d   1       0.310  -4.085   0.502  0.00  0.00     0.021 A 
ATOM      8  C7  <0> d   1       1.528  -4.626   0.800  0.00  0.00     0.038 A 
ATOM      9  C8  <0> d   1       2.683  -3.852   0.701  0.00  0.00     0.071 A 
ATOM     10  C9  <0> d   1       2.615  -2.530   0.298  0.00  0.00     0.075 A 
ATOM     11  C10 <0> d   1       1.384  -1.965  -0.013  0.00  0.00     0.092 A 
ATOM     12  O2  <0> d   1       1.300  -0.685  -0.427  0.00  0.00    -0.313 OA
ENDROOT
BRANCH   9  13
ATOM     13  O3  <0> d   1       3.888  -4.401   1.004  0.00  0.00    -0.349 OA
BRANCH  13  14
ATOM     14  C11 <0> d   1       3.892  -5.769   1.414  0.00  0.00     0.206 C 
BRANCH  14  15
ATOM     15  C12 <0> d   1       5.328  -6.208   1.710  0.00  0.00     0.299 C 
BRANCH  15  16
ATOM     16  N1  <0> d   1       5.842  -5.456   2.863  0.00  0.00     0.093 N 
ATOM     17  C16 <0> d   1       5.275  -5.966   4.119  0.00  0.00     0.302 C 
ATOM     18  C15 <0> d   1       5.772  -5.108   5.285  0.00  0.00     0.302 C 
ATOM     19  N2  <0> d   1       7.241  -5.139   5.322  0.00  0.00     0.093 N 
ATOM     20  C14 <0> d   1       7.807  -4.630   4.066  0.00  0.00     0.302 C 
ATOM     21  C13 <0> d   1       7.310  -5.488   2.900  0.00  0.00     0.302 C 
BRANCH  19  22
ATOM     22  C17 <0> d   1       7.755  -4.388   6.475  0.00  0.00     0.298 C 
BRANCH  22  23
ATOM     23  C18 <0> d   1       7.346  -5.095   7.768  0.00  0.00     0.194 C 
BRANCH  23  24
ATOM     24  O4  <0> d   1       7.984  -6.372   7.835  0.00  0.00    -0.399 OA
ATOM     25  H23 <0> d   1       7.770  -6.878   8.631  0.00  0.00     0.209 HD
ENDBRANCH  23  24
ENDBRANCH  22  23
ENDBRANCH  19  22
ENDBRANCH  15  16
ENDBRANCH  14  15
ENDBRANCH  13  14
ENDBRANCH   9  13
BRANCH   3  26
ATOM     26  C19 <0> d   1      -2.333   0.107  -0.415  0.00  0.00    -0.017 A 
ATOM     27  C24 <0> d   1      -3.213  -0.068  -1.482  0.00  0.00     0.052 A 
ATOM     28  C23 <0> d   1      -4.398   0.646  -1.521  0.00  0.00     0.102 A 
ATOM     29  C22 <0> d   1      -4.703   1.544  -0.502  0.00  0.00     0.101 A 
ATOM     30  C21 <0> d   1      -3.824   1.721   0.556  0.00  0.00     0.040 A 
ATOM     31  C20 <0> d   1      -2.643   1.008   0.602  0.00  0.00     0.015 A 
BRANCH  28  32
ATOM     32  O5  <0> d   1      -5.261   0.474  -2.557  0.00  0.00    -0.353 OA
ATOM     33  C25 <0> d   1      -4.884  -0.464  -3.567  0.00  0.00     0.210 C 
ENDBRANCH  28  32
BRANCH  29  34
ATOM     34  O6  <0> d   1      -5.866   2.248  -0.543  0.00  0.00    -0.353 OA
ATOM     35  C26 <0> d   1      -6.115   3.152   0.535  0.00  0.00     0.210 C 
ENDBRANCH  29  34
ENDBRANCH   3  26
TORSDOF 10
