REMARK  8 active torsions:
REMARK  status: ('A' for Active; 'I' for Inactive)
REMARK    1  A    between atoms: O1_2  and  C2_3 
REMARK    2  A    between atoms: C7_8  and  O2_9 
REMARK    3  A    between atoms: O2_9  and  C8_10 
REMARK    4  A    between atoms: C10_15  and  C11_16 
REMARK    5  A    between atoms: C14_19  and  O4_23 
REMARK    6  A    between atoms: O4_23  and  C17_24 
REMARK    7  A    between atoms: C17_24  and  C18_25 
REMARK    8  A    between atoms: C21_28  and  N3_31 
ROOT
ATOM      1  C11 <0> d   1       2.279  -4.665   0.204  0.00  0.00     0.032 A 
ATOM      2  C12 <0> d   1       3.108  -5.077  -0.840  0.00  0.00     0.019 A 
ATOM      3  C13 <0> d   1       4.450  -4.761  -0.819  0.00  0.00     0.038 A 
ATOM      4  C14 <0> d   1       4.980  -4.032   0.238  0.00  0.00     0.071 A 
ATOM      5  C15 <0> d   1       4.163  -3.618   1.280  0.00  0.00     0.077 A 
ATOM      6  C16 <0> d   1       2.814  -3.926   1.267  0.00  0.00     0.122 A 
ATOM      7  O3  <0> d   1       2.011  -3.516   2.284  0.00  0.00    -0.191 OA
ENDROOT
BRANCH   1   8
ATOM      8  C10 <0> d   1       0.840  -5.001   0.185  0.00  0.00     0.098 A 
ATOM      9  C8  <0> d   1      -0.210  -4.111   0.086  0.00  0.00     0.124 A 
ATOM     10  C9  <0> d   1      -1.395  -4.852   0.100  0.00  0.00     0.178 A 
ATOM     11  N1  <0> d   1      -1.095  -6.121   0.205  0.00  0.00    -0.184 NA
ATOM     12  N2  <0> d   1       0.297  -6.253   0.265  0.00  0.00    -0.275 N 
ATOM     13  H1  <0> d   1       0.790  -7.085   0.344  0.00  0.00     0.189 HD
BRANCH   9  14
ATOM     14  O2  <0> d   1      -0.109  -2.757  -0.012  0.00  0.00    -0.304 OA
BRANCH  14  15
ATOM     15  C7  <0> d   1      -1.256  -2.028   0.009  0.00  0.00     0.109 A 
ATOM     16  C2  <0> d   1      -1.863  -1.718   1.223  0.00  0.00     0.102 A 
ATOM     17  C3  <0> d   1      -3.029  -0.970   1.240  0.00  0.00     0.039 A 
ATOM     18  C4  <0> d   1      -3.590  -0.537   0.053  0.00  0.00     0.003 A 
ATOM     19  C5  <0> d   1      -2.991  -0.850  -1.153  0.00  0.00     0.003 A 
ATOM     20  C6  <0> d   1      -1.827  -1.596  -1.177  0.00  0.00     0.040 A 
BRANCH  16  21
ATOM     21  O1  <0> d   1      -1.310  -2.144   2.390  0.00  0.00    -0.353 OA
ATOM     22  C1  <0> d   1      -1.987  -1.789   3.597  0.00  0.00     0.210 C 
ENDBRANCH  16  21
ENDBRANCH  14  15
ENDBRANCH   9  14
ENDBRANCH   1   8
BRANCH   4  23
ATOM     23  O4  <0> d   1       6.304  -3.724   0.253  0.00  0.00    -0.347 OA
BRANCH  23  24
ATOM     24  C17 <0> d   1       6.783  -2.973   1.369  0.00  0.00     0.214 C 
BRANCH  24  25
ATOM     25  C18 <0> d   1       8.262  -2.728   1.213  0.00  0.00    -0.034 A 
ATOM     26  C23 <0> d   1       8.710  -1.598   0.555  0.00  0.00     0.012 A 
ATOM     27  C22 <0> d   1      10.066  -1.371   0.415  0.00  0.00     0.037 A 
ATOM     28  C21 <0> d   1      10.975  -2.280   0.925  0.00  0.00     0.102 A 
ATOM     29  C20 <0> d   1      10.527  -3.413   1.578  0.00  0.00     0.037 A 
ATOM     30  C19 <0> d   1       9.171  -3.637   1.722  0.00  0.00     0.012 A 
BRANCH  28  31
ATOM     31  N3  <0> d   1      12.427  -2.039   0.772  0.00  0.00    -0.116 N 
ATOM     32  O5  <0> d   1      13.222  -2.833   1.218  0.00  0.00    -0.532 OA
ATOM     33  O6  <0> d   1      12.819  -1.048   0.201  0.00  0.00    -0.532 OA
ENDBRANCH  28  31
ENDBRANCH  24  25
ENDBRANCH  23  24
ENDBRANCH   4  23
TORSDOF 8
