REMARK  8 active torsions:
REMARK  status: ('A' for Active; 'I' for Inactive)
REMARK    1  A    between atoms: C3_3  and  C23_31 
REMARK    2  A    between atoms: C4_4  and  C5_8 
REMARK    3  A    between atoms: C8_11  and  O2_15 
REMARK    4  A    between atoms: C10_13  and  O1_14 
REMARK    5  A    between atoms: O2_15  and  C11_16 
REMARK    6  A    between atoms: C11_16  and  C12_17 
REMARK    7  A    between atoms: C12_17  and  N3_18 
REMARK    8  A    between atoms: N4_21  and  C17_24 
ROOT
ATOM      1  C5  <0> d   1      -1.261   2.927  -4.611  0.00  0.00     0.026 A 
ATOM      2  C6  <0> d   1      -1.530   4.225  -5.050  0.00  0.00     0.019 A 
ATOM      3  C7  <0> d   1      -1.339   4.557  -6.374  0.00  0.00     0.038 A 
ATOM      4  C8  <0> d   1      -0.879   3.604  -7.274  0.00  0.00     0.071 A 
ATOM      5  C9  <0> d   1      -0.609   2.312  -6.847  0.00  0.00     0.074 A 
ATOM      6  C10 <0> d   1      -0.792   1.969  -5.519  0.00  0.00     0.081 A 
ENDROOT
BRANCH   4   7
ATOM      7  O2  <0> d   1      -0.693   3.939  -8.578  0.00  0.00    -0.349 OA
BRANCH   7   8
ATOM      8  C11 <0> d   1      -0.991   5.286  -8.951  0.00  0.00     0.203 C 
BRANCH   8   9
ATOM      9  C12 <0> d   1      -0.723   5.473 -10.445  0.00  0.00     0.261 C 
BRANCH   9  10
ATOM     10  N3  <0> d   1      -1.623   4.605 -11.216  0.00  0.00    -0.066 N 
ATOM     11  C16 <0> d   1      -3.009   5.055 -11.034  0.00  0.00     0.254 C 
ATOM     12  C15 <0> d   1      -3.958   4.084 -11.743  0.00  0.00     0.150 C 
ATOM     13  N4  <0> d   1      -3.539   3.965 -13.148  0.00  0.00    -0.378 N 
ATOM     14  C14 <0> d   1      -2.123   3.676 -13.427  0.00  0.00     0.150 C 
ATOM     15  C13 <0> d   1      -1.261   4.667 -12.638  0.00  0.00     0.254 C 
ATOM     16  H30 <0> d   1      -1.534   3.655 -10.890  0.00  0.00     0.280 HD
BRANCH  13  17
ATOM     17  C17 <0> d   1      -4.459   4.121 -14.189  0.00  0.00     0.030 A 
ATOM     18  C22 <0> d   1      -5.762   4.516 -13.912  0.00  0.00     0.032 A 
ATOM     19  C21 <0> d   1      -6.668   4.674 -14.942  0.00  0.00     0.044 A 
ATOM     20  C20 <0> d   1      -6.282   4.431 -16.249  0.00  0.00     0.116 A 
ATOM     21  C19 <0> d   1      -4.985   4.032 -16.527  0.00  0.00     0.044 A 
ATOM     22  F1  <0> d   1      -7.171   4.582 -17.255  0.00  0.00    -0.206 F 
ATOM     23  C18 <0> d   1      -4.074   3.877 -15.501  0.00  0.00     0.032 A 
ENDBRANCH  13  17
ENDBRANCH   9  10
ENDBRANCH   8   9
ENDBRANCH   7   8
ENDBRANCH   4   7
BRANCH   6  24
ATOM     24  O1  <0> d   1      -0.522   0.706  -5.098  0.00  0.00    -0.360 OA
ATOM     25  H8  <0> d   1      -1.276   0.103  -5.156  0.00  0.00     0.217 HD
ENDBRANCH   6  24
BRANCH   1  26
ATOM     26  C4  <0> d   1      -1.464   2.568  -3.193  0.00  0.00     0.076 A 
ATOM     27  C3  <0> d   1      -0.481   2.198  -2.285  0.00  0.00     0.029 A 
ATOM     28  C2  <0> d   1      -1.119   1.945  -1.058  0.00  0.00     0.064 A 
ATOM     29  C1  <0> d   1      -0.438   1.514   0.216  0.00  0.00     0.073 C 
ATOM     30  N2  <0> d   1      -2.402   2.141  -1.209  0.00  0.00    -0.178 NA
ATOM     31  N1  <0> d   1      -2.653   2.536  -2.528  0.00  0.00    -0.276 N 
ATOM     32  H1  <0> d   1      -3.522   2.747  -2.903  0.00  0.00     0.189 HD
BRANCH  27  33
ATOM     33  C23 <0> d   1       0.972   2.091  -2.559  0.00  0.00    -0.022 A 
ATOM     34  C28 <0> d   1       1.608   0.852  -2.489  0.00  0.00     0.012 A 
ATOM     35  C27 <0> d   1       2.960   0.757  -2.750  0.00  0.00     0.001 A 
ATOM     36  C26 <0> d   1       3.686   1.890  -3.069  0.00  0.00     0.000 A 
ATOM     37  C25 <0> d   1       3.062   3.123  -3.134  0.00  0.00     0.001 A 
ATOM     38  C24 <0> d   1       1.710   3.229  -2.881  0.00  0.00     0.012 A 
ENDBRANCH  27  33
ENDBRANCH   1  26
TORSDOF 8
