REMARK  7 active torsions:
REMARK  status: ('A' for Active; 'I' for Inactive)
REMARK    1  A    between atoms: C3_3  and  C19_27 
REMARK    2  A    between atoms: C4_4  and  C5_8 
REMARK    3  A    between atoms: C8_11  and  O2_15 
REMARK    4  A    between atoms: O2_15  and  C11_16 
REMARK    5  A    between atoms: C11_16  and  C12_17 
REMARK    6  A    between atoms: C12_17  and  N3_18 
REMARK    7  A    between atoms: C15_21  and  C18_24 
REMARK       I    between atoms: C18_24  and  N4_26 
ROOT
ATOM      1  C5  <0> d   1      -0.153  -3.232   1.659  0.00  0.00     0.032 A 
ATOM      2  C6  <0> d   1      -0.258  -2.998   3.029  0.00  0.00     0.019 A 
ATOM      3  C7  <0> d   1      -0.346  -4.060   3.905  0.00  0.00     0.038 A 
ATOM      4  C8  <0> d   1      -0.331  -5.364   3.425  0.00  0.00     0.071 A 
ATOM      5  C9  <0> d   1      -0.227  -5.605   2.064  0.00  0.00     0.077 A 
ATOM      6  C10 <0> d   1      -0.143  -4.545   1.177  0.00  0.00     0.122 A 
ATOM      7  O1  <0> d   1      -0.047  -4.780  -0.158  0.00  0.00    -0.191 OA
ENDROOT
BRANCH   4   8
ATOM      8  O2  <0> d   1      -0.417  -6.405   4.293  0.00  0.00    -0.349 OA
BRANCH   8   9
ATOM      9  C11 <0> d   1      -0.395  -7.720   3.733  0.00  0.00     0.203 C 
BRANCH   9  10
ATOM     10  C12 <0> d   1      -0.502  -8.754   4.856  0.00  0.00     0.261 C 
BRANCH  10  11
ATOM     11  N3  <0> d   1      -1.811  -8.633   5.511  0.00  0.00    -0.069 N 
ATOM     12  C17 <0> d   1      -1.867  -9.542   6.662  0.00  0.00     0.235 C 
ATOM     13  C16 <0> d   1      -3.197  -9.361   7.396  0.00  0.00     0.042 C 
ATOM     14  C15 <0> d   1      -4.349  -9.676   6.438  0.00  0.00     0.081 C 
ATOM     15  C14 <0> d   1      -4.238  -8.773   5.207  0.00  0.00     0.042 C 
ATOM     16  C13 <0> d   1      -2.869  -8.976   4.554  0.00  0.00     0.235 C 
ATOM     17  H28 <0> d   1      -1.941  -7.683   5.827  0.00  0.00     0.280 HD
BRANCH  14  18
ATOM     18  C18 <0> d   1      -5.664  -9.424   7.131  0.00  0.00     0.219 C 
ATOM     19  O3  <0> d   1      -6.437  -8.603   6.685  0.00  0.00    -0.273 OA
ATOM     20  N4  <0> d   1      -5.980 -10.111   8.247  0.00  0.00    -0.370 N 
ATOM     21  H21 <0> d   1      -5.362 -10.768   8.604  0.00  0.00     0.159 HD
ATOM     22  H22 <0> d   1      -6.826  -9.949   8.693  0.00  0.00     0.159 HD
ENDBRANCH  14  18
ENDBRANCH  10  11
ENDBRANCH   9  10
ENDBRANCH   8   9
ENDBRANCH   4   8
BRANCH   1  23
ATOM     23  C4  <0> d   1      -0.059  -2.093   0.715  0.00  0.00     0.103 A 
ATOM     24  C3  <0> d   1       0.796  -0.970   0.845  0.00  0.00     0.029 A 
ATOM     25  C2  <0> d   1       0.574  -0.160  -0.229  0.00  0.00     0.037 A 
ATOM     26  C1  <0> d   1       1.262   1.151  -0.509  0.00  0.00     0.070 C 
ATOM     27  N2  <0> d   1      -0.375  -0.738  -0.993  0.00  0.00    -0.281 N 
ATOM     28  N1  <0> d   1      -0.754  -1.944  -0.392  0.00  0.00    -0.173 NA
ATOM     29  H1  <0> d   1      -0.734  -0.379  -1.820  0.00  0.00     0.189 HD
BRANCH  24  30
ATOM     30  C19 <0> d   1       1.758  -0.721   1.947  0.00  0.00    -0.022 A 
ATOM     31  C24 <0> d   1       1.552   0.339   2.828  0.00  0.00     0.012 A 
ATOM     32  C23 <0> d   1       2.446   0.561   3.856  0.00  0.00     0.001 A 
ATOM     33  C22 <0> d   1       3.551  -0.258   4.005  0.00  0.00     0.000 A 
ATOM     34  C21 <0> d   1       3.763  -1.308   3.129  0.00  0.00     0.001 A 
ATOM     35  C20 <0> d   1       2.872  -1.543   2.102  0.00  0.00     0.012 A 
ENDBRANCH  24  30
ENDBRANCH   1  23
TORSDOF 7
