REMARK  5 active torsions:
REMARK  status: ('A' for Active; 'I' for Inactive)
REMARK    1  A    between atoms: C2_2  and  N1_3 
REMARK    2  A    between atoms: N2_6  and  C7_9 
REMARK    3  A    between atoms: C7_9  and  C8_10 
REMARK    4  A    between atoms: C15_18  and  C16_19 
REMARK    5  A    between atoms: C19_22  and  O2_25 
ROOT
ATOM      1  C8  <0> d   1       1.599   3.243  -0.089  0.00  0.00     0.041 A 
ATOM      2  C9  <0> d   1       0.564   4.164  -0.090  0.00  0.00     0.118 A 
ATOM      3  C10 <0> d   1      -0.762   3.740  -0.070  0.00  0.00     0.041 A 
ATOM      4  C11 <0> d   1      -1.055   2.405  -0.045  0.00  0.00     0.021 A 
ATOM      5  C12 <0> d   1      -0.023   1.467  -0.048  0.00  0.00     0.051 A 
ATOM      6  C13 <0> d   1       1.318   1.883  -0.068  0.00  0.00     0.101 A 
ATOM      7  O1  <0> d   1       2.130   0.803  -0.061  0.00  0.00    -0.305 OA
ATOM      8  C14 <0> d   1       1.428  -0.354  -0.037  0.00  0.00     0.127 A 
ATOM      9  C15 <0> d   1       1.948  -1.608  -0.026  0.00  0.00     0.053 C 
ATOM     10  C23 <0> d   1      -0.001  -0.007  -0.027  0.00  0.00     0.218 A 
ATOM     11  O3  <0> d   1      -0.953  -0.768  -0.006  0.00  0.00    -0.284 OA
ATOM     12  O4  <0> d   1       0.845   5.492  -0.112  0.00  0.00    -0.191 OA
ENDROOT
BRANCH   1  13
ATOM     13  C7  <0> d   1       3.029   3.717  -0.112  0.00  0.00     0.317 C 
BRANCH  13  14
ATOM     14  N2  <0> d   1       3.478   3.852  -1.504  0.00  0.00     0.096 N 
ATOM     15  C4  <0> d   1       4.779   4.533  -1.574  0.00  0.00     0.300 C 
ATOM     16  C3  <0> d   1       5.173   4.725  -3.040  0.00  0.00     0.265 C 
ATOM     17  N1  <0> d   1       5.231   3.416  -3.704  0.00  0.00    -0.068 N 
ATOM     18  C6  <0> d   1       3.931   2.734  -3.634  0.00  0.00     0.265 C 
ATOM     19  H26 <0> d   1       5.968   2.797  -3.171  0.00  0.00     0.280 HD
ATOM     20  C5  <0> d   1       3.537   2.543  -2.168  0.00  0.00     0.300 C 
BRANCH  17  21
ATOM     21  C2  <0> d   1       5.680   3.551  -5.096  0.00  0.00     0.230 C 
ATOM     22  C1  <0> d   1       5.492   2.219  -5.825  0.00  0.00     0.034 C 
ENDBRANCH  17  21
ENDBRANCH  13  14
ENDBRANCH   1  13
BRANCH   9  23
ATOM     23  C16 <0> d   1       3.398  -1.802  -0.151  0.00  0.00    -0.033 A 
ATOM     24  C21 <0> d   1       4.258  -0.696  -0.153  0.00  0.00     0.014 A 
ATOM     25  C20 <0> d   1       5.616  -0.883  -0.271  0.00  0.00     0.037 A 
ATOM     26  C19 <0> d   1       6.136  -2.168  -0.387  0.00  0.00     0.068 A 
ATOM     27  C18 <0> d   1       5.287  -3.269  -0.386  0.00  0.00     0.037 A 
ATOM     28  C17 <0> d   1       3.928  -3.094  -0.263  0.00  0.00     0.014 A 
BRANCH  26  29
ATOM     29  O2  <0> d   1       7.476  -2.347  -0.504  0.00  0.00    -0.356 OA
ATOM     30  C22 <0> d   1       7.943  -3.693  -0.619  0.00  0.00     0.210 C 
ENDBRANCH  26  29
ENDBRANCH   9  23
TORSDOF 5
