REMARK  8 active torsions:
REMARK  status: ('A' for Active; 'I' for Inactive)
REMARK    1  A    between atoms: C6_6  and  C7_7 
REMARK    2  A    between atoms: C8_8  and  C11_17 
REMARK    3  A    between atoms: C9_12  and  C10_13 
REMARK    4  A    between atoms: C14_20  and  O2_24 
REMARK    5  A    between atoms: C16_22  and  O1_23 
REMARK    6  A    between atoms: O2_24  and  C17_25 
REMARK    7  A    between atoms: C17_25  and  C18_26 
REMARK       I    between atoms: C18_26  and  N3_28 
REMARK    8  A    between atoms: N3_28  and  N4_29 
ROOT
ATOM      1  C7  <0> d   1      -1.138  -1.542  -0.230  0.00  0.00     0.039 A 
ATOM      2  C8  <0> d   1      -1.756  -1.708   1.035  0.00  0.00     0.103 A 
ATOM      3  N1  <0> d   1      -3.036  -1.442   0.895  0.00  0.00    -0.173 NA
ATOM      4  N2  <0> d   1      -3.274  -1.103  -0.443  0.00  0.00    -0.272 N 
ATOM      5  H1  <0> d   1      -4.133  -0.860  -0.822  0.00  0.00     0.189 HD
ATOM      6  C9  <0> d   1      -2.105  -1.164  -1.112  0.00  0.00     0.147 A 
ENDROOT
BRANCH   2   7
ATOM      7  C11 <0> d   1      -1.080  -2.111   2.291  0.00  0.00     0.029 A 
ATOM      8  C16 <0> d   1      -1.635  -3.111   3.097  0.00  0.00     0.081 A 
ATOM      9  C15 <0> d   1      -0.996  -3.487   4.266  0.00  0.00     0.074 A 
ATOM     10  C14 <0> d   1       0.185  -2.864   4.642  0.00  0.00     0.072 A 
ATOM     11  C13 <0> d   1       0.734  -1.867   3.845  0.00  0.00     0.038 A 
ATOM     12  C12 <0> d   1       0.107  -1.491   2.676  0.00  0.00     0.019 A 
BRANCH   8  13
ATOM     13  O1  <0> d   1      -2.795  -3.715   2.730  0.00  0.00    -0.360 OA
ATOM     14  H9  <0> d   1      -2.673  -4.502   2.181  0.00  0.00     0.217 HD
ENDBRANCH   8  13
BRANCH  10  15
ATOM     15  O2  <0> d   1       0.808  -3.231   5.793  0.00  0.00    -0.342 OA
BRANCH  15  16
ATOM     16  C17 <0> d   1       2.020  -2.549   6.120  0.00  0.00     0.279 C 
BRANCH  16  17
ATOM     17  C18 <0> d   1       2.563  -3.085   7.420  0.00  0.00     0.255 C 
ATOM     18  O3  <0> d   1       1.969  -3.964   8.008  0.00  0.00    -0.270 OA
ATOM     19  N3  <0> d   1       3.707  -2.587   7.929  0.00  0.00    -0.292 N 
ATOM     20  H12 <0> d   1       4.182  -1.885   7.458  0.00  0.00     0.183 HD
BRANCH  19  21
ATOM     21  N4  <0> d   1       4.199  -3.073   9.107  0.00  0.00    -0.247 NA
ATOM     22  H13 <0> d   1       5.057  -2.607   9.360  0.00  0.00     0.143 HD
ATOM     23  H14 <0> d   1       3.514  -2.996   9.844  0.00  0.00     0.143 HD
ENDBRANCH  19  21
ENDBRANCH  16  17
ENDBRANCH  15  16
ENDBRANCH  10  15
ENDBRANCH   2   7
BRANCH   1  24
ATOM     24  C6  <0> d   1       0.301  -1.739  -0.536  0.00  0.00    -0.021 A 
ATOM     25  C1  <0> d   1       1.098  -0.648  -0.878  0.00  0.00     0.014 A 
ATOM     26  C2  <0> d   1       2.436  -0.836  -1.162  0.00  0.00     0.020 A 
ATOM     27  C3  <0> d   1       2.985  -2.105  -1.107  0.00  0.00     0.011 A 
ATOM     28  C4  <0> d   1       2.198  -3.192  -0.768  0.00  0.00     0.020 A 
ATOM     29 Br1  <0> d   1       4.819  -2.355  -1.497  0.00  0.00    -0.051 Br
ATOM     30  C5  <0> d   1       0.859  -3.014  -0.483  0.00  0.00     0.014 A 
ENDBRANCH   1  24
BRANCH   6  31
ATOM     31  C10 <0> d   1      -1.905  -0.868  -2.576  0.00  0.00     0.434 C 
ATOM     32  F1  <0> d   1      -3.129  -0.512  -3.152  0.00  0.00    -0.165 F 
ATOM     33  F2  <0> d   1      -0.997   0.187  -2.719  0.00  0.00    -0.165 F 
ATOM     34  F3  <0> d   1      -1.402  -2.006  -3.217  0.00  0.00    -0.165 F 
ENDBRANCH   6  31
TORSDOF 8
