REMARK  8 active torsions:
REMARK  status: ('A' for Active; 'I' for Inactive)
REMARK    1  A    between atoms: C2_2  and  O1_3 
REMARK    2  A    between atoms: O1_3  and  C3_4 
REMARK    3  A    between atoms: C8_9  and  O2_10 
REMARK    4  A    between atoms: O2_10  and  C9_11 
REMARK    5  A    between atoms: C11_16  and  C12_17 
REMARK    6  A    between atoms: C15_20  and  O4_24 
REMARK    7  A    between atoms: O4_24  and  C18_25 
REMARK    8  A    between atoms: C18_25  and  C19_26 
ROOT
ATOM      1  C9  <0> d   1      -5.096  -2.170  -0.066  0.00  0.00     0.124 A 
ATOM      2  C10 <0> d   1      -5.351  -3.500  -0.075  0.00  0.00     0.149 A 
ATOM      3  N1  <0> d   1      -6.696  -3.664  -0.185  0.00  0.00    -0.286 N 
ATOM      4  H1  <0> d   1      -7.166  -4.513  -0.216  0.00  0.00     0.188 HD
ATOM      5  N2  <0> d   1      -7.286  -2.395  -0.244  0.00  0.00    -0.172 NA
ATOM      6  C11 <0> d   1      -6.330  -1.493  -0.167  0.00  0.00     0.125 A 
ENDROOT
BRANCH   6   7
ATOM      7  C12 <0> d   1      -6.517  -0.022  -0.187  0.00  0.00     0.034 A 
ATOM      8  C17 <0> d   1      -7.802   0.520  -0.291  0.00  0.00     0.122 A 
ATOM      9  C16 <0> d   1      -7.971   1.894  -0.304  0.00  0.00     0.077 A 
ATOM     10  O3  <0> d   1      -8.882  -0.299  -0.375  0.00  0.00    -0.191 OA
ATOM     11  C15 <0> d   1      -6.866   2.730  -0.225  0.00  0.00     0.071 A 
ATOM     12  C14 <0> d   1      -5.590   2.192  -0.127  0.00  0.00     0.038 A 
ATOM     13  C13 <0> d   1      -5.413   0.824  -0.107  0.00  0.00     0.020 A 
BRANCH  11  14
ATOM     14  O4  <0> d   1      -7.034   4.078  -0.242  0.00  0.00    -0.347 OA
BRANCH  14  15
ATOM     15  C18 <0> d   1      -8.374   4.564  -0.345  0.00  0.00     0.208 C 
BRANCH  15  16
ATOM     16  C19 <0> d   1      -8.363   6.071  -0.350  0.00  0.00    -0.069 C 
ATOM     17  C20 <0> d   1      -7.227   6.718  -0.267  0.00  0.00     0.016 C 
ATOM     18  C21 <0> d   1      -9.659   6.833  -0.450  0.00  0.00     0.044 C 
ENDBRANCH  15  16
ENDBRANCH  14  15
ENDBRANCH  11  14
ENDBRANCH   6   7
BRANCH   1  19
ATOM     19  O2  <0> d   1      -3.868  -1.590   0.030  0.00  0.00    -0.304 OA
BRANCH  19  20
ATOM     20  C8  <0> d   1      -2.776  -2.399   0.009  0.00  0.00     0.109 A 
ATOM     21  C3  <0> d   1      -2.276  -2.864  -1.203  0.00  0.00     0.102 A 
ATOM     22  C4  <0> d   1      -1.159  -3.684  -1.220  0.00  0.00     0.039 A 
ATOM     23  C5  <0> d   1      -0.548  -4.044  -0.033  0.00  0.00     0.003 A 
ATOM     24  C6  <0> d   1      -1.048  -3.587   1.172  0.00  0.00     0.003 A 
ATOM     25  C7  <0> d   1      -2.162  -2.769   1.196  0.00  0.00     0.040 A 
BRANCH  21  26
ATOM     26  O1  <0> d   1      -2.878  -2.510  -2.370  0.00  0.00    -0.349 OA
BRANCH  26  27
ATOM     27  C2  <0> d   1      -2.310  -3.024  -3.576  0.00  0.00     0.171 C 
ATOM     28  C1  <0> d   1      -3.116  -2.521  -4.775  0.00  0.00     0.034 C 
ENDBRANCH  26  27
ENDBRANCH  21  26
ENDBRANCH  19  20
ENDBRANCH   1  19
TORSDOF 8
