REMARK  3 active torsions:
REMARK  status: ('A' for Active; 'I' for Inactive)
REMARK    1  A    between atoms: N1_6  and  C7_8 
REMARK    2  A    between atoms: C7_8  and  C8_9 
REMARK    3  A    between atoms: C15_17  and  C17_20 
ROOT
ATOM      1  C8  <0> d   1      -1.184  -0.726   0.009  0.00  0.00     0.039 A 
ATOM      2  C9  <0> d   1      -1.148  -2.110  -0.000  0.00  0.00     0.118 A 
ATOM      3  C10 <0> d   1       0.069  -2.788  -0.015  0.00  0.00     0.041 A 
ATOM      4  C11 <0> d   1       1.245  -2.093  -0.022  0.00  0.00     0.021 A 
ATOM      5  C12 <0> d   1       1.225  -0.698  -0.013  0.00  0.00     0.050 A 
ATOM      6  C13 <0> d   1       0.002  -0.004   0.002  0.00  0.00     0.100 A 
ATOM      7  O1  <0> d   1      -0.016   1.344   0.009  0.00  0.00    -0.320 OA
ATOM      8  C14 <0> d   1       1.088   2.092   0.003  0.00  0.00     0.161 A 
ATOM      9  C15 <0> d   1       2.338   1.552  -0.011  0.00  0.00     0.073 A 
ATOM     10  C16 <0> d   1       2.474   0.084  -0.021  0.00  0.00     0.199 A 
ATOM     11  O2  <0> d   1       3.567  -0.456  -0.034  0.00  0.00    -0.286 OA
ATOM     12  O3  <0> d   1      -2.309  -2.813   0.006  0.00  0.00    -0.191 OA
ENDROOT
BRANCH   1  13
ATOM     13  C7  <0> d   1      -2.507  -0.004   0.026  0.00  0.00     0.279 C 
BRANCH  13  14
ATOM     14  N1  <0> d   1      -2.950   0.239  -1.354  0.00  0.00    -0.067 N 
ATOM     15  C5  <0> d   1      -3.250  -1.024  -2.040  0.00  0.00     0.235 C 
ATOM     16  C4  <0> d   1      -3.844  -0.729  -3.419  0.00  0.00     0.028 C 
ATOM     17  C3  <0> d   1      -2.843   0.093  -4.236  0.00  0.00     0.007 C 
ATOM     18  C2  <0> d   1      -2.511   1.380  -3.476  0.00  0.00     0.007 C 
ATOM     19  C1  <0> d   1      -1.466   2.179  -4.257  0.00  0.00     0.011 C 
ATOM     20  C6  <0> d   1      -1.955   1.023  -2.096  0.00  0.00     0.239 C 
ATOM     21  H22 <0> d   1      -3.879   0.827  -1.314  0.00  0.00     0.280 HD
ENDBRANCH  13  14
ENDBRANCH   1  13
BRANCH   9  22
ATOM     22  C17 <0> d   1       3.533   2.420  -0.018  0.00  0.00     0.115 A 
ATOM     23  S1  <0> d   1       5.258   1.952  -0.029  0.00  0.00    -0.067 SA
ATOM     24  C23 <0> d   1       5.934   3.595  -0.034  0.00  0.00     0.035 A 
ATOM     25  C18 <0> d   1       4.771   4.400  -0.018  0.00  0.00     0.075 A 
ATOM     26  C22 <0> d   1       7.200   4.126  -0.042  0.00  0.00     0.021 A 
ATOM     27  N2  <0> d   1       3.599   3.734  -0.011  0.00  0.00    -0.239 NA
ATOM     28  C19 <0> d   1       4.981   5.800  -0.012  0.00  0.00     0.033 A 
ATOM     29  C20 <0> d   1       6.239   6.316  -0.020  0.00  0.00     0.002 A 
ATOM     30  C21 <0> d   1       7.361   5.499  -0.035  0.00  0.00     0.002 A 
ENDBRANCH   9  22
TORSDOF 3
