REMARK  4 active torsions:
REMARK  status: ('A' for Active; 'I' for Inactive)
REMARK    1  A    between atoms: C4_4  and  C7_7 
REMARK    2  A    between atoms: C7_7  and  N1_8 
REMARK    3  A    between atoms: N2_11  and  C12_14 
REMARK    4  A    between atoms: C12_14  and  C13_15 
ROOT
ATOM      1  N1  <0> d   1       4.153  -0.953   1.342  0.00  0.00     0.096 N 
ATOM      2  C8  <0> d   1       3.245  -1.883   2.028  0.00  0.00     0.303 C 
ATOM      3  C9  <0> d   1       3.693  -2.050   3.481  0.00  0.00     0.303 C 
ATOM      4  N2  <0> d   1       5.075  -2.550   3.510  0.00  0.00     0.096 N 
ATOM      5  C10 <0> d   1       5.983  -1.620   2.825  0.00  0.00     0.303 C 
ATOM      6  C11 <0> d   1       5.535  -1.453   1.371  0.00  0.00     0.303 C 
ENDROOT
BRANCH   4   7
ATOM      7  C12 <0> d   1       5.517  -2.796   4.890  0.00  0.00     0.312 C 
BRANCH   7   8
ATOM      8  C13 <0> d   1       6.832  -3.532   4.872  0.00  0.00    -0.011 A 
ATOM      9  C17 <0> d   1       6.877  -4.993   4.755  0.00  0.00     0.008 A 
ATOM     10  C16 <0> d   1       8.126  -5.638   4.738  0.00  0.00     0.090 A 
ATOM     11  C18 <0> d   1       5.701  -5.743   4.655  0.00  0.00     0.038 A 
ATOM     12  O2  <0> d   1       9.259  -4.910   4.839  0.00  0.00    -0.275 OA
ATOM     13  C21 <0> d   1       8.179  -7.020   4.621  0.00  0.00     0.040 A 
ATOM     14  C15 <0> d   1       9.226  -3.574   4.952  0.00  0.00     0.288 A 
ATOM     15  C14 <0> d   1       8.008  -2.861   4.971  0.00  0.00     0.092 A 
ATOM     16  O1  <0> d   1      10.274  -2.960   5.041  0.00  0.00    -0.260 OA
ATOM     17  C20 <0> d   1       7.011  -7.750   4.535  0.00  0.00     0.026 A 
ATOM     18  C19 <0> d   1       5.777  -7.115   4.545  0.00  0.00     0.035 A 
ATOM     19 Cl1  <0> d   1       4.322  -8.053   4.421  0.00  0.00    -0.084 Cl
ENDBRANCH   7   8
ENDBRANCH   4   7
BRANCH   1  20
ATOM     20  C7  <0> d   1       3.711  -0.707  -0.038  0.00  0.00     0.311 C 
BRANCH  20  21
ATOM     21  C4  <0> d   1       2.396   0.029  -0.020  0.00  0.00    -0.030 A 
ATOM     22  C3  <0> d   1       2.377   1.411  -0.013  0.00  0.00     0.009 A 
ATOM     23  C2  <0> d   1       1.171   2.086   0.002  0.00  0.00     0.001 A 
ATOM     24  C1  <0> d   1      -0.017   1.378   0.010  0.00  0.00     0.000 A 
ATOM     25  C6  <0> d   1       0.002  -0.004   0.002  0.00  0.00     0.001 A 
ATOM     26  C5  <0> d   1       1.208  -0.679  -0.012  0.00  0.00     0.009 A 
ENDBRANCH  20  21
ENDBRANCH   1  20
TORSDOF 4
