REMARK  9 active torsions:
REMARK  status: ('A' for Active; 'I' for Inactive)
REMARK    1  A    between atoms: O1_2  and  C2_3 
REMARK    2  A    between atoms: C5_6  and  C8_9 
REMARK    3  A    between atoms: C13_14  and  O4_20 
REMARK    4  A    between atoms: O4_20  and  C17_21 
REMARK    5  A    between atoms: C17_21  and  C18_22 
REMARK    6  A    between atoms: C18_22  and  N1_23 
REMARK    7  A    between atoms: N2_26  and  C23_29 
REMARK    8  A    between atoms: C23_29  and  C24_30 
REMARK    9  A    between atoms: C24_30  and  O5_31 
ROOT
ATOM      1  C8  <0> d   1       3.442  -2.741   0.117  0.00  0.00     0.051 A 
ATOM      2  C9  <0> d   1       3.544  -1.382   0.246  0.00  0.00     0.032 A 
ATOM      3  C10 <0> d   1       2.361  -0.601   0.220  0.00  0.00    -0.001 A 
ATOM      4  C11 <0> d   1       2.434   0.794   0.351  0.00  0.00     0.017 A 
ATOM      5  C12 <0> d   1       1.293   1.542   0.324  0.00  0.00     0.038 A 
ATOM      6  C13 <0> d   1       0.052   0.928   0.167  0.00  0.00     0.071 A 
ATOM      7  C14 <0> d   1      -0.040  -0.447   0.036  0.00  0.00     0.075 A 
ATOM      8  C15 <0> d   1       1.110  -1.224   0.061  0.00  0.00     0.092 A 
ATOM      9  O2  <0> d   1       1.020  -2.566  -0.065  0.00  0.00    -0.274 OA
ATOM     10  C16 <0> d   1       2.116  -3.343  -0.044  0.00  0.00     0.299 A 
ATOM     11  O3  <0> d   1       2.008  -4.549  -0.161  0.00  0.00    -0.259 OA
ENDROOT
BRANCH   6  12
ATOM     12  O4  <0> d   1      -1.075   1.685   0.136  0.00  0.00    -0.349 OA
BRANCH  12  13
ATOM     13  C17 <0> d   1      -0.911   3.098   0.276  0.00  0.00     0.206 C 
BRANCH  13  14
ATOM     14  C18 <0> d   1      -2.281   3.778   0.217  0.00  0.00     0.299 C 
BRANCH  14  15
ATOM     15  N1  <0> d   1      -3.083   3.364   1.376  0.00  0.00     0.093 N 
ATOM     16  C22 <0> d   1      -2.637   4.048   2.597  0.00  0.00     0.300 C 
ATOM     17  C21 <0> d   1      -3.443   3.531   3.792  0.00  0.00     0.265 C 
ATOM     18  N2  <0> d   1      -4.874   3.767   3.552  0.00  0.00    -0.066 N 
ATOM     19  C20 <0> d   1      -5.320   3.083   2.331  0.00  0.00     0.265 C 
ATOM     20  H29 <0> d   1      -5.021   4.848   3.410  0.00  0.00     0.280 HD
ATOM     21  C19 <0> d   1      -4.514   3.599   1.137  0.00  0.00     0.300 C 
BRANCH  18  22
ATOM     22  C23 <0> d   1      -5.676   3.353   4.711  0.00  0.00     0.260 C 
BRANCH  22  23
ATOM     23  C24 <0> d   1      -5.540   4.393   5.824  0.00  0.00     0.192 C 
BRANCH  23  24
ATOM     24  O5  <0> d   1      -6.110   5.630   5.393  0.00  0.00    -0.399 OA
ATOM     25  H28 <0> d   1      -6.105   6.502   6.064  0.00  0.00     0.209 HD
ENDBRANCH  23  24
ENDBRANCH  22  23
ENDBRANCH  18  22
ENDBRANCH  14  15
ENDBRANCH  13  14
ENDBRANCH  12  13
ENDBRANCH   6  12
BRANCH   1  26
ATOM     26  C5  <0> d   1       4.656  -3.591   0.141  0.00  0.00    -0.020 A 
ATOM     27  C4  <0> d   1       4.712  -4.705   0.979  0.00  0.00     0.015 A 
ATOM     28  C3  <0> d   1       5.842  -5.495   0.998  0.00  0.00     0.037 A 
ATOM     29  C2  <0> d   1       6.924  -5.182   0.185  0.00  0.00     0.068 A 
ATOM     30  C7  <0> d   1       6.871  -4.073  -0.649  0.00  0.00     0.037 A 
ATOM     31  C6  <0> d   1       5.742  -3.283  -0.678  0.00  0.00     0.015 A 
BRANCH  29  32
ATOM     32  O1  <0> d   1       8.036  -5.962   0.207  0.00  0.00    -0.356 OA
ATOM     33  C1  <0> d   1       9.111  -5.582  -0.655  0.00  0.00     0.210 C 
ENDBRANCH  29  32
ENDBRANCH   1  26
TORSDOF 9
