REMARK  7 active torsions:
REMARK  status: ('A' for Active; 'I' for Inactive)
REMARK    1  A    between atoms: N2_5  and  C6_8 
REMARK    2  A    between atoms: C6_8  and  C7_9 
REMARK    3  A    between atoms: C8_10  and  O6_32 
REMARK    4  A    between atoms: C14_17  and  C15_18 
REMARK    5  A    between atoms: C17_20  and  O4_28 
REMARK    6  A    between atoms: C18_21  and  O3_26 
REMARK    7  A    between atoms: C19_22  and  O2_24 
ROOT
ATOM      1  C7  <0> d   1      -1.167  10.378   1.295  0.00  0.00     0.038 A 
ATOM      2  C8  <0> d   1      -1.077  11.693   0.866  0.00  0.00     0.076 A 
ATOM      3  C9  <0> d   1      -0.471  12.001  -0.349  0.00  0.00     0.038 A 
ATOM      4  C10 <0> d   1       0.042  11.005  -1.132  0.00  0.00     0.021 A 
ATOM      5  C11 <0> d   1      -0.041   9.678  -0.712  0.00  0.00     0.051 A 
ATOM      6  C12 <0> d   1      -0.650   9.354   0.512  0.00  0.00     0.101 A 
ATOM      7  O1  <0> d   1      -0.616   8.017   0.698  0.00  0.00    -0.305 OA
ATOM      8  C13 <0> d   1      -0.006   7.381  -0.330  0.00  0.00     0.127 A 
ATOM      9  C14 <0> d   1       0.190   6.042  -0.442  0.00  0.00     0.053 C 
ATOM     10  C24 <0> d   1       0.401   8.402  -1.306  0.00  0.00     0.218 A 
ATOM     11  O5  <0> d   1       0.975   8.233  -2.368  0.00  0.00    -0.284 OA
ENDROOT
BRANCH   9  12
ATOM     12  C15 <0> d   1      -0.127   5.157   0.686  0.00  0.00    -0.028 A 
ATOM     13  C20 <0> d   1      -0.495   5.701   1.923  0.00  0.00     0.051 A 
ATOM     14  C19 <0> d   1      -0.793   4.865   2.981  0.00  0.00     0.105 A 
ATOM     15  C18 <0> d   1      -0.722   3.483   2.821  0.00  0.00     0.135 A 
ATOM     16  C17 <0> d   1      -0.361   2.938   1.591  0.00  0.00     0.105 A 
ATOM     17  C16 <0> d   1      -0.062   3.767   0.527  0.00  0.00     0.051 A 
BRANCH  14  18
ATOM     18  O2  <0> d   1      -1.150   5.391   4.183  0.00  0.00    -0.353 OA
ATOM     19  C21 <0> d   1      -1.197   6.816   4.279  0.00  0.00     0.210 C 
ENDBRANCH  14  18
BRANCH  15  20
ATOM     20  O3  <0> d   1      -1.010   2.663   3.867  0.00  0.00    -0.351 OA
ATOM     21  C22 <0> d   1      -2.371   2.251   4.012  0.00  0.00     0.210 C 
ENDBRANCH  15  20
BRANCH  16  22
ATOM     22  O4  <0> d   1      -0.298   1.588   1.438  0.00  0.00    -0.353 OA
ATOM     23  C23 <0> d   1       0.084   1.098   0.151  0.00  0.00     0.210 C 
ENDBRANCH  16  22
ENDBRANCH   9  12
BRANCH   1  24
ATOM     24  C6  <0> d   1      -1.825  10.060   2.613  0.00  0.00     0.317 C 
BRANCH  24  25
ATOM     25  N2  <0> d   1      -3.260   9.830   2.401  0.00  0.00     0.096 N 
ATOM     26  C3  <0> d   1      -3.891   9.288   3.612  0.00  0.00     0.300 C 
ATOM     27  C2  <0> d   1      -5.365   8.989   3.326  0.00  0.00     0.264 C 
ATOM     28  N1  <0> d   1      -6.037  10.222   2.892  0.00  0.00    -0.072 N 
ATOM     29  C1  <0> d   1      -7.472   9.992   2.680  0.00  0.00     0.269 C 
ATOM     30  C5  <0> d   1      -5.406  10.764   1.681  0.00  0.00     0.264 C 
ATOM     31  H29 <0> d   1      -5.930  10.967   3.694  0.00  0.00     0.279 HD
ATOM     32  C4  <0> d   1      -3.932  11.063   1.967  0.00  0.00     0.300 C 
ENDBRANCH  24  25
ENDBRANCH   1  24
BRANCH   2  33
ATOM     33  O6  <0> d   1      -1.584  12.688   1.636  0.00  0.00    -0.360 OA
ATOM     34  H28 <0> d   1      -1.516  13.733   1.299  0.00  0.00     0.217 HD
ENDBRANCH   2  33
TORSDOF 7
