REMARK  5 active torsions:
REMARK  status: ('A' for Active; 'I' for Inactive)
REMARK    1  A    between atoms: O1_2  and  C2_3 
REMARK    2  A    between atoms: C7_8  and  C8_9 
REMARK    3  A    between atoms: C14_16  and  C18_24 
REMARK    4  A    between atoms: C16_19  and  C17_20 
REMARK    5  A    between atoms: C18_24  and  N1_25 
ROOT
ATOM      1  C8  <0> d   1       2.337   1.553  -0.011  0.00  0.00     0.067 A 
ATOM      2  C9  <0> d   1       2.474   0.086  -0.021  0.00  0.00     0.198 A 
ATOM      3  O2  <0> d   1       3.567  -0.453  -0.034  0.00  0.00    -0.286 OA
ATOM      4  C10 <0> d   1       1.225  -0.697  -0.013  0.00  0.00     0.050 A 
ATOM      5  C11 <0> d   1       1.246  -2.092  -0.021  0.00  0.00     0.021 A 
ATOM      6  C12 <0> d   1       0.071  -2.788  -0.014  0.00  0.00     0.041 A 
ATOM      7  C13 <0> d   1      -1.147  -2.111   0.001  0.00  0.00     0.118 A 
ATOM      8  C14 <0> d   1      -1.184  -0.727   0.009  0.00  0.00     0.039 A 
ATOM      9  C15 <0> d   1       0.002  -0.004   0.002  0.00  0.00     0.101 A 
ATOM     10  O3  <0> d   1      -0.016   1.343   0.009  0.00  0.00    -0.303 OA
ATOM     11  C16 <0> d   1       1.090   2.092   0.003  0.00  0.00     0.174 A 
ATOM     12  O5  <0> d   1      -2.308  -2.814   0.007  0.00  0.00    -0.191 OA
ENDROOT
BRANCH   1  13
ATOM     13  C7  <0> d   1       3.537   2.425  -0.018  0.00  0.00     0.014 A 
ATOM     14  C2  <0> d   1       4.117   2.830   1.188  0.00  0.00     0.079 A 
ATOM     15  C3  <0> d   1       5.237   3.644   1.172  0.00  0.00     0.037 A 
ATOM     16  C4  <0> d   1       5.780   4.053  -0.032  0.00  0.00     0.003 A 
ATOM     17  C5  <0> d   1       5.208   3.653  -1.226  0.00  0.00     0.001 A 
ATOM     18  C6  <0> d   1       4.095   2.838  -1.226  0.00  0.00     0.015 A 
BRANCH  14  19
ATOM     19  O1  <0> d   1       3.583   2.427   2.371  0.00  0.00    -0.355 OA
ATOM     20  C1  <0> d   1       4.229   2.881   3.562  0.00  0.00     0.210 C 
ENDBRANCH  14  19
ENDBRANCH   1  13
BRANCH  11  21
ATOM     21  C17 <0> d   1       0.950   3.592   0.012  0.00  0.00     0.440 C 
ATOM     22  F1  <0> d   1       0.894   4.064  -1.304  0.00  0.00    -0.164 F 
ATOM     23  F2  <0> d   1      -0.225   3.946   0.685  0.00  0.00    -0.164 F 
ATOM     24  F3  <0> d   1       2.050   4.160   0.664  0.00  0.00    -0.164 F 
ENDBRANCH  11  21
BRANCH   8  25
ATOM     25  C18 <0> d   1      -2.507  -0.007   0.026  0.00  0.00     0.281 C 
BRANCH  25  26
ATOM     26  N1  <0> d   1      -2.951   0.236  -1.354  0.00  0.00    -0.046 N 
ATOM     27  C22 <0> d   1      -3.249  -1.028  -2.041  0.00  0.00     0.402 C 
ATOM     28  O4  <0> d   1      -3.750  -0.754  -3.351  0.00  0.00    -0.364 OA
ATOM     29  C21 <0> d   1      -2.834  -0.036  -4.182  0.00  0.00     0.171 C 
ATOM     30  C20 <0> d   1      -2.483   1.295  -3.508  0.00  0.00     0.054 C 
ATOM     31  C19 <0> d   1      -1.951   1.014  -2.099  0.00  0.00     0.240 C 
ATOM     32  H20 <0> d   1      -3.878   0.826  -1.311  0.00  0.00     0.282 HD
ENDBRANCH  25  26
ENDBRANCH   8  25
TORSDOF 5
