REMARK  3 active torsions:
REMARK  status: ('A' for Active; 'I' for Inactive)
REMARK    1  A    between atoms: C6_6  and  C8_8 
REMARK    2  A    between atoms: C15_16  and  C17_19 
REMARK    3  A    between atoms: C17_19  and  N1_20 
ROOT
ATOM      1  C8  <0> d   1       3.652   2.154  -0.023  0.00  0.00     0.053 C 
ATOM      2  C9  <0> d   1       3.639   3.507  -0.117  0.00  0.00     0.127 A 
ATOM      3  C10 <0> d   1       4.817   4.382  -0.236  0.00  0.00     0.218 A 
ATOM      4  O1  <0> d   1       5.990   4.053  -0.269  0.00  0.00    -0.284 OA
ATOM      5  C11 <0> d   1       4.259   5.744  -0.308  0.00  0.00     0.051 A 
ATOM      6  C12 <0> d   1       4.838   7.008  -0.428  0.00  0.00     0.021 A 
ATOM      7  C13 <0> d   1       4.046   8.120  -0.464  0.00  0.00     0.041 A 
ATOM      8  C14 <0> d   1       2.661   7.995  -0.381  0.00  0.00     0.118 A 
ATOM      9  C15 <0> d   1       2.072   6.747  -0.261  0.00  0.00     0.041 A 
ATOM     10  C16 <0> d   1       2.864   5.606  -0.223  0.00  0.00     0.101 A 
ATOM     11  O2  <0> d   1       2.541   4.299  -0.114  0.00  0.00    -0.305 OA
ATOM     12  O4  <0> d   1       1.882   9.106  -0.417  0.00  0.00    -0.191 OA
ENDROOT
BRANCH   1  13
ATOM     13  C6  <0> d   1       2.387   1.405  -0.021  0.00  0.00    -0.033 A 
ATOM     14  C5  <0> d   1       1.166   2.088   0.010  0.00  0.00     0.011 A 
ATOM     15  C4  <0> d   1      -0.016   1.378   0.011  0.00  0.00     0.001 A 
ATOM     16  C3  <0> d   1       0.003  -0.005  -0.019  0.00  0.00     0.007 A 
ATOM     17  C2  <0> d   1       1.207  -0.688  -0.050  0.00  0.00    -0.061 A 
ATOM     18  C1  <0> d   1       1.216  -2.195  -0.083  0.00  0.00     0.048 C 
ATOM     19  C7  <0> d   1       2.397   0.006  -0.052  0.00  0.00     0.018 A 
ENDBRANCH   1  13
BRANCH   9  20
ATOM     20  C17 <0> d   1       0.573   6.627  -0.172  0.00  0.00     0.317 C 
BRANCH  20  21
ATOM     21  N1  <0> d   1       0.160   6.686   1.237  0.00  0.00     0.097 N 
ATOM     22  C21 <0> d   1      -1.300   6.811   1.353  0.00  0.00     0.299 C 
ATOM     23  C20 <0> d   1      -1.681   6.928   2.831  0.00  0.00     0.198 C 
ATOM     24  O3  <0> d   1      -1.176   5.793   3.540  0.00  0.00    -0.388 OA
ATOM     25  C19 <0> d   1       0.243   5.641   3.449  0.00  0.00     0.198 C 
ATOM     26  C18 <0> d   1       0.643   5.511   1.977  0.00  0.00     0.299 C 
ENDBRANCH  20  21
ENDBRANCH   9  20
TORSDOF 3
