REMARK  3 active torsions:
REMARK  status: ('A' for Active; 'I' for Inactive)
REMARK    1  A    between atoms: C8_9  and  C11_14 
REMARK    2  A    between atoms: C11_14  and  N1_15 
REMARK    3  A    between atoms: N2_18  and  C16_21 
ROOT
ATOM      1  C1  <0> d   1      -1.089   1.154   0.761  0.00  0.00     0.050 C 
ATOM      2  C2  <0> d   1      -0.842  -0.324   0.602  0.00  0.00    -0.038 A 
ATOM      3  C3  <0> d   1      -0.779  -0.874  -0.661  0.00  0.00     0.046 A 
ATOM      4  C4  <0> d   1      -0.552  -2.235  -0.815  0.00  0.00     0.090 A 
ATOM      5  C5  <0> d   1      -0.388  -3.042   0.325  0.00  0.00     0.008 A 
ATOM      6  C6  <0> d   1      -0.454  -2.471   1.599  0.00  0.00     0.039 A 
ATOM      7  C7  <0> d   1      -0.674  -1.117   1.729  0.00  0.00     0.041 A 
ATOM      8 Cl1  <0> d   1      -0.750  -0.402   3.308  0.00  0.00    -0.084 Cl
ATOM      9  C8  <0> d   1      -0.148  -4.478   0.151  0.00  0.00    -0.011 A 
ATOM     10  C9  <0> d   1      -0.095  -4.970  -1.112  0.00  0.00     0.092 A 
ATOM     11  C10 <0> d   1      -0.269  -4.102  -2.212  0.00  0.00     0.288 A 
ATOM     12  O1  <0> d   1      -0.220  -4.557  -3.341  0.00  0.00    -0.260 OA
ATOM     13  O2  <0> d   1      -0.488  -2.789  -2.045  0.00  0.00    -0.275 OA
ENDROOT
BRANCH   9  14
ATOM     14  C11 <0> d   1       0.034  -5.382   1.343  0.00  0.00     0.312 C 
BRANCH  14  15
ATOM     15  N1  <0> d   1       1.439  -5.350   1.770  0.00  0.00     0.095 N 
ATOM     16  C15 <0> d   1       1.708  -6.391   2.772  0.00  0.00     0.292 C 
ATOM     17  C14 <0> d   1       3.213  -6.445   3.056  0.00  0.00     0.154 C 
ATOM     18  N2  <0> d   1       3.667  -5.095   3.424  0.00  0.00    -0.362 N 
ATOM     19  C13 <0> d   1       3.316  -3.976   2.536  0.00  0.00     0.154 C 
ATOM     20  C12 <0> d   1       1.807  -4.020   2.272  0.00  0.00     0.292 C 
BRANCH  18  21
ATOM     21  C16 <0> d   1       4.409  -4.882   4.581  0.00  0.00     0.125 A 
ATOM     22  N3  <0> d   1       4.531  -5.856   5.470  0.00  0.00    -0.244 NA
ATOM     23  C20 <0> d   1       5.230  -5.697   6.578  0.00  0.00     0.119 A 
ATOM     24  C19 <0> d   1       5.854  -4.497   6.855  0.00  0.00     0.019 A 
ATOM     25  C18 <0> d   1       5.746  -3.449   5.951  0.00  0.00     0.005 A 
ATOM     26  C17 <0> d   1       5.011  -3.647   4.796  0.00  0.00     0.050 A 
ENDBRANCH  18  21
ENDBRANCH  14  15
ENDBRANCH   9  14
TORSDOF 3
