REMARK  6 active torsions:
REMARK  status: ('A' for Active; 'I' for Inactive)
REMARK    1  A    between atoms: C2_2  and  C3_3 
REMARK    2  A    between atoms: C6_6  and  C12_15 
REMARK    3  A    between atoms: C11_13  and  O3_14 
REMARK    4  A    between atoms: C12_15  and  N1_16 
REMARK    5  A    between atoms: N2_19  and  C17_22 
REMARK    6  A    between atoms: C17_22  and  C18_23 
ROOT
ATOM      1  C3  <0> d   1       0.707  -0.490  -1.238  0.00  0.00    -0.024 A 
ATOM      2  C4  <0> d   1       2.008  -0.898  -1.162  0.00  0.00     0.024 A 
ATOM      3  C5  <0> d   1       2.663  -1.349  -2.313  0.00  0.00     0.007 A 
ATOM      4  C6  <0> d   1       4.057  -1.794  -2.262  0.00  0.00    -0.011 A 
ATOM      5  C7  <0> d   1       4.637  -2.221  -3.414  0.00  0.00     0.092 A 
ATOM      6  C8  <0> d   1       3.895  -2.227  -4.613  0.00  0.00     0.288 A 
ATOM      7  O1  <0> d   1       4.428  -2.613  -5.638  0.00  0.00    -0.260 OA
ATOM      8  O2  <0> d   1       2.617  -1.819  -4.653  0.00  0.00    -0.275 OA
ATOM      9  C9  <0> d   1       1.982  -1.382  -3.545  0.00  0.00     0.093 A 
ATOM     10  C10 <0> d   1       0.661  -0.963  -3.604  0.00  0.00     0.075 A 
ATOM     11  C11 <0> d   1       0.026  -0.525  -2.453  0.00  0.00     0.074 A 
ENDROOT
BRANCH   4  12
ATOM     12  C12 <0> d   1       4.828  -1.777  -0.967  0.00  0.00     0.312 C 
BRANCH  12  13
ATOM     13  N1  <0> d   1       5.402  -0.441  -0.756  0.00  0.00     0.096 N 
ATOM     14  C16 <0> d   1       5.957  -0.314   0.599  0.00  0.00     0.300 C 
ATOM     15  C15 <0> d   1       6.489   1.107   0.798  0.00  0.00     0.265 C 
ATOM     16  N2  <0> d   1       7.527   1.386  -0.203  0.00  0.00    -0.064 N 
ATOM     17  C14 <0> d   1       6.951   1.280  -1.550  0.00  0.00     0.265 C 
ATOM     18  H27 <0> d   1       8.277   0.719  -0.104  0.00  0.00     0.280 HD
ATOM     19  C13 <0> d   1       6.423  -0.140  -1.769  0.00  0.00     0.300 C 
BRANCH  16  20
ATOM     20  C17 <0> d   1       8.050   2.744  -0.000  0.00  0.00     0.273 C 
BRANCH  20  21
ATOM     21  C18 <0> d   1       8.749   2.818   1.333  0.00  0.00    -0.033 A 
ATOM     22  C23 <0> d   1      10.099   2.534   1.423  0.00  0.00     0.009 A 
ATOM     23  C22 <0> d   1      10.741   2.607   2.645  0.00  0.00     0.001 A 
ATOM     24  C21 <0> d   1      10.031   2.955   3.779  0.00  0.00     0.000 A 
ATOM     25  C20 <0> d   1       8.680   3.235   3.690  0.00  0.00     0.001 A 
ATOM     26  C19 <0> d   1       8.039   3.166   2.467  0.00  0.00     0.009 A 
ENDBRANCH  20  21
ENDBRANCH  16  20
ENDBRANCH  12  13
ENDBRANCH   4  12
BRANCH   1  27
ATOM     27  C2  <0> d   1       0.002  -0.004   0.002  0.00  0.00     0.037 C 
ATOM     28  C1  <0> d   1      -0.019   1.526   0.010  0.00  0.00     0.010 C 
ENDBRANCH   1  27
BRANCH  11  29
ATOM     29  O3  <0> d   1      -1.268  -0.121  -2.510  0.00  0.00    -0.360 OA
ATOM     30  H9  <0> d   1      -1.379   0.820  -2.700  0.00  0.00     0.217 HD
ENDBRANCH  11  29
TORSDOF 6
