REMARK  7 active torsions:
REMARK  status: ('A' for Active; 'I' for Inactive)
REMARK    1  A    between atoms: O1_2  and  C2_3 
REMARK    2  A    between atoms: C5_6  and  C8_9 
REMARK    3  A    between atoms: C15_18  and  O6_37 
REMARK    4  A    between atoms: C16_19  and  C17_20 
REMARK    5  A    between atoms: C17_20  and  N1_21 
REMARK    6  A    between atoms: N2_24  and  C22_27 
REMARK    7  A    between atoms: C22_27  and  C23_28 
ROOT
ATOM      1  C8  <0> d   1       2.579  -2.541   4.295  0.00  0.00     0.048 C 
ATOM      2  C9  <0> d   1       2.091  -2.442   5.559  0.00  0.00     0.159 C 
ATOM      3  O2  <0> d   1       2.666  -3.042   6.604  0.00  0.00    -0.320 OA
ATOM      4  C10 <0> d   1       3.920  -3.527   6.541  0.00  0.00     0.100 A 
ATOM      5  C11 <0> d   1       4.551  -3.709   5.297  0.00  0.00     0.050 A 
ATOM      6  C12 <0> d   1       3.801  -3.339   4.080  0.00  0.00     0.197 C 
ATOM      7  O3  <0> d   1       4.170  -3.670   2.966  0.00  0.00    -0.286 OA
ATOM      8  C13 <0> d   1       5.845  -4.222   5.227  0.00  0.00     0.021 A 
ATOM      9  C14 <0> d   1       6.508  -4.545   6.377  0.00  0.00     0.038 A 
ATOM     10  C15 <0> d   1       5.896  -4.364   7.615  0.00  0.00     0.076 A 
ATOM     11  C16 <0> d   1       4.610  -3.858   7.700  0.00  0.00     0.035 A 
ENDROOT
BRANCH  11  12
ATOM     12  C17 <0> d   1       3.960  -3.668   9.046  0.00  0.00     0.279 C 
BRANCH  12  13
ATOM     13  N1  <0> d   1       3.240  -4.892   9.420  0.00  0.00    -0.064 N 
ATOM     14  C21 <0> d   1       2.509  -4.666  10.674  0.00  0.00     0.265 C 
ATOM     15  C20 <0> d   1       1.742  -5.935  11.054  0.00  0.00     0.300 C 
ATOM     16  N2  <0> d   1       2.691  -7.047  11.213  0.00  0.00     0.095 N 
ATOM     17  C19 <0> d   1       3.448  -7.269   9.973  0.00  0.00     0.300 C 
ATOM     18  C18 <0> d   1       4.200  -5.989   9.602  0.00  0.00     0.265 C 
ATOM     19  H29 <0> d   1       2.587  -5.134   8.690  0.00  0.00     0.280 HD
BRANCH  16  20
ATOM     20  C22 <0> d   1       1.998  -8.273  11.633  0.00  0.00     0.311 C 
BRANCH  20  21
ATOM     21  C23 <0> d   1       1.440  -8.084  13.020  0.00  0.00    -0.027 A 
ATOM     22  C28 <0> d   1       0.163  -7.581  13.187  0.00  0.00     0.048 A 
ATOM     23  C27 <0> d   1      -0.354  -7.412  14.461  0.00  0.00     0.105 A 
ATOM     24  C26 <0> d   1       0.420  -7.738  15.572  0.00  0.00     0.105 A 
ATOM     25  O4  <0> d   1      -1.563  -6.947  14.893  0.00  0.00    -0.323 OA
ATOM     26  C25 <0> d   1       1.701  -8.236  15.397  0.00  0.00     0.040 A 
ATOM     27  O5  <0> d   1      -0.304  -7.478  16.700  0.00  0.00    -0.323 OA
ATOM     28  C24 <0> d   1       2.208  -8.408  14.123  0.00  0.00     0.012 A 
ATOM     29  C29 <0> d   1      -1.672  -7.376  16.263  0.00  0.00     0.352 C 
ENDBRANCH  20  21
ENDBRANCH  16  20
ENDBRANCH  12  13
ENDBRANCH  11  12
BRANCH  10  30
ATOM     30  O6  <0> d   1       6.567  -4.687   8.750  0.00  0.00    -0.360 OA
ATOM     31  H28 <0> d   1       7.087  -3.960   9.120  0.00  0.00     0.217 HD
ENDBRANCH  10  30
BRANCH   1  32
ATOM     32  C5  <0> d   1       1.897  -1.871   3.160  0.00  0.00    -0.020 A 
ATOM     33  C4  <0> d   1       1.836  -0.479   3.107  0.00  0.00     0.015 A 
ATOM     34  C3  <0> d   1       1.202   0.141   2.050  0.00  0.00     0.037 A 
ATOM     35  C2  <0> d   1       0.626  -0.618   1.042  0.00  0.00     0.068 A 
ATOM     36  C7  <0> d   1       0.681  -2.004   1.095  0.00  0.00     0.037 A 
ATOM     37  C6  <0> d   1       1.318  -2.631   2.146  0.00  0.00     0.015 A 
BRANCH  35  38
ATOM     38  O1  <0> d   1       0.002  -0.004   0.002  0.00  0.00    -0.356 OA
ATOM     39  C1  <0> d   1      -0.017   1.425   0.010  0.00  0.00     0.210 C 
ENDBRANCH  35  38
ENDBRANCH   1  32
TORSDOF 7
