REMARK  9 active torsions:
REMARK  status: ('A' for Active; 'I' for Inactive)
REMARK    1  A    between atoms: O1_2  and  C2_3 
REMARK    2  A    between atoms: C5_6  and  O6_31 
REMARK    3  A    between atoms: C6_7  and  C8_9 
REMARK    4  A    between atoms: C13_14  and  O5_30 
REMARK    5  A    between atoms: C14_15  and  C17_20 
REMARK    6  A    between atoms: C17_20  and  N1_21 
REMARK    7  A    between atoms: N2_24  and  C22_27 
REMARK    8  A    between atoms: C22_27  and  C23_28 
REMARK    9  A    between atoms: C23_28  and  O4_29 
ROOT
ATOM      1  C8  <0> d   1      -4.314   0.402   3.590  0.00  0.00     0.053 A 
ATOM      2  C9  <0> d   1      -4.500   1.758   3.568  0.00  0.00     0.032 A 
ATOM      3  C10 <0> d   1      -5.247   2.365   4.610  0.00  0.00    -0.000 A 
ATOM      4  C11 <0> d   1      -5.458   3.752   4.612  0.00  0.00     0.017 A 
ATOM      5  C12 <0> d   1      -6.173   4.331   5.618  0.00  0.00     0.038 A 
ATOM      6  C13 <0> d   1      -6.698   3.553   6.648  0.00  0.00     0.076 A 
ATOM      7  C14 <0> d   1      -6.501   2.182   6.663  0.00  0.00     0.038 A 
ATOM      8  C15 <0> d   1      -5.776   1.575   5.647  0.00  0.00     0.100 A 
ATOM      9  O2  <0> d   1      -5.583   0.238   5.663  0.00  0.00    -0.273 OA
ATOM     10  C16 <0> d   1      -4.885  -0.376   4.693  0.00  0.00     0.299 A 
ATOM     11  O3  <0> d   1      -4.726  -1.582   4.730  0.00  0.00    -0.259 OA
ENDROOT
BRANCH   7  12
ATOM     12  C17 <0> d   1      -7.073   1.350   7.782  0.00  0.00     0.317 C 
BRANCH  12  13
ATOM     13  N1  <0> d   1      -6.093   1.256   8.873  0.00  0.00     0.096 N 
ATOM     14  C21 <0> d   1      -6.696   0.659  10.072  0.00  0.00     0.303 C 
ATOM     15  C20 <0> d   1      -5.669   0.651  11.207  0.00  0.00     0.302 C 
ATOM     16  N2  <0> d   1      -4.482  -0.105  10.784  0.00  0.00     0.093 N 
ATOM     17  C19 <0> d   1      -3.879   0.493   9.585  0.00  0.00     0.302 C 
ATOM     18  C18 <0> d   1      -4.907   0.500   8.450  0.00  0.00     0.303 C 
BRANCH  16  19
ATOM     19  C22 <0> d   1      -3.502  -0.199  11.875  0.00  0.00     0.298 C 
BRANCH  19  20
ATOM     20  C23 <0> d   1      -3.979  -1.229  12.902  0.00  0.00     0.194 C 
BRANCH  20  21
ATOM     21  O4  <0> d   1      -4.009  -2.524  12.298  0.00  0.00    -0.399 OA
ATOM     22  H24 <0> d   1      -4.328  -3.397  12.886  0.00  0.00     0.209 HD
ENDBRANCH  20  21
ENDBRANCH  19  20
ENDBRANCH  16  19
ENDBRANCH  12  13
ENDBRANCH   7  12
BRANCH   6  23
ATOM     23  O5  <0> d   1      -7.409   4.143   7.643  0.00  0.00    -0.360 OA
ATOM     24  H25 <0> d   1      -7.825   3.532   8.458  0.00  0.00     0.217 HD
ENDBRANCH   6  23
BRANCH   1  25
ATOM     25  C6  <0> d   1      -3.543  -0.269   2.518  0.00  0.00     0.016 A 
ATOM     26  C5  <0> d   1      -4.174  -1.178   1.662  0.00  0.00     0.079 A 
ATOM     27  C4  <0> d   1      -3.447  -1.802   0.662  0.00  0.00     0.040 A 
ATOM     28  C3  <0> d   1      -2.102  -1.528   0.508  0.00  0.00     0.039 A 
ATOM     29  C2  <0> d   1      -1.470  -0.627   1.355  0.00  0.00     0.069 A 
ATOM     30  C7  <0> d   1      -2.184  -0.001   2.361  0.00  0.00     0.052 A 
BRANCH  26  31
ATOM     31  O6  <0> d   1      -5.498  -1.448   1.812  0.00  0.00    -0.355 OA
ATOM     32  C24 <0> d   1      -6.075  -2.387   0.903  0.00  0.00     0.210 C 
ENDBRANCH  26  31
BRANCH  29  33
ATOM     33  O1  <0> d   1      -0.145  -0.363   1.198  0.00  0.00    -0.356 OA
ATOM     34  C1  <0> d   1       0.532  -1.049   0.142  0.00  0.00     0.210 C 
ENDBRANCH  29  33
ENDBRANCH   1  25
TORSDOF 9
