REMARK  2 active torsions:
REMARK  status: ('A' for Active; 'I' for Inactive)
REMARK    1  A    between atoms: C9_10  and  C10_11 
REMARK    2  A    between atoms: C14_15  and  O2_17 
ROOT
ATOM      1  C1  <0> d   1       0.557   6.625  -0.174  0.00  0.00     0.054 C 
ATOM      2  C2  <0> d   1       2.056   6.750  -0.262  0.00  0.00     0.009 A 
ATOM      3  C3  <0> d   1       2.641   8.000  -0.381  0.00  0.00     0.116 A 
ATOM      4  C4  <0> d   1       4.024   8.130  -0.464  0.00  0.00     0.041 A 
ATOM      5  C5  <0> d   1       4.821   7.020  -0.427  0.00  0.00     0.021 A 
ATOM      6  C6  <0> d   1       4.246   5.755  -0.307  0.00  0.00     0.051 A 
ATOM      7  C7  <0> d   1       2.851   5.612  -0.223  0.00  0.00     0.099 A 
ATOM      8  O1  <0> d   1       2.533   4.303  -0.114  0.00  0.00    -0.305 OA
ATOM      9  C8  <0> d   1       3.634   3.515  -0.116  0.00  0.00     0.127 A 
ATOM     10  C9  <0> d   1       3.651   2.163  -0.021  0.00  0.00     0.053 C 
ATOM     11  C17 <0> d   1       4.809   4.394  -0.234  0.00  0.00     0.218 A 
ATOM     12  O3  <0> d   1       5.983   4.070  -0.266  0.00  0.00    -0.284 OA
ATOM     13  O4  <0> d   1       1.858   9.108  -0.418  0.00  0.00    -0.192 OA
ENDROOT
BRANCH  10  14
ATOM     14  C10 <0> d   1       2.389   1.410  -0.018  0.00  0.00    -0.031 A 
ATOM     15  C15 <0> d   1       1.166   2.088   0.016  0.00  0.00     0.048 A 
ATOM     16  C14 <0> d   1      -0.018   1.371   0.019  0.00  0.00     0.069 A 
ATOM     17  C13 <0> d   1       0.010  -0.017  -0.011  0.00  0.00     0.037 A 
ATOM     18  C12 <0> d   1       1.218  -0.691  -0.045  0.00  0.00     0.004 A 
ATOM     19  C11 <0> d   1       2.404   0.010  -0.048  0.00  0.00     0.011 A 
BRANCH  16  20
ATOM     20  O2  <0> d   1      -1.208   2.026   0.052  0.00  0.00    -0.356 OA
ATOM     21  C16 <0> d   1      -2.390   1.224   0.053  0.00  0.00     0.210 C 
ENDBRANCH  16  20
ENDBRANCH  10  14
TORSDOF 2
