REMARK  5 active torsions:
REMARK  status: ('A' for Active; 'I' for Inactive)
REMARK    1  A    between atoms: N1_10  and  C11_12 
REMARK    2  A    between atoms: C11_12  and  C12_13 
REMARK    3  A    between atoms: C13_14  and  O3_34 
REMARK    4  A    between atoms: C19_21  and  C21_24 
REMARK    5  A    between atoms: C20_22  and  O2_23 
ROOT
ATOM      1  C12 <0> d   1      -3.549  -2.488  -0.376  0.00  0.00     0.036 A 
ATOM      2  C13 <0> d   1      -4.481  -2.696  -1.382  0.00  0.00     0.076 A 
ATOM      3  C14 <0> d   1      -5.814  -2.340  -1.194  0.00  0.00     0.038 A 
ATOM      4  C15 <0> d   1      -6.221  -1.780  -0.017  0.00  0.00     0.020 A 
ATOM      5  C16 <0> d   1      -5.295  -1.562   1.007  0.00  0.00     0.033 A 
ATOM      6  C17 <0> d   1      -3.948  -1.928   0.826  0.00  0.00     0.101 A 
ATOM      7  O1  <0> d   1      -3.053  -1.728   1.825  0.00  0.00    -0.292 OA
ATOM      8  C18 <0> d   1      -3.311  -0.719   2.695  0.00  0.00     0.158 C 
ATOM      9  C19 <0> d   1      -4.704  -0.533   3.147  0.00  0.00     0.085 C 
ATOM     10  C20 <0> d   1      -5.711  -0.957   2.280  0.00  0.00     0.096 C 
ATOM     11  N3  <0> d   1      -2.354   0.066   3.121  0.00  0.00    -0.379 N 
ATOM     12  H27 <0> d   1      -1.444  -0.070   2.814  0.00  0.00     0.158 HD
ATOM     13  H28 <0> d   1      -2.555   0.782   3.743  0.00  0.00     0.158 HD
ENDROOT
BRANCH   1  14
ATOM     14  C11 <0> d   1      -2.108  -2.876  -0.588  0.00  0.00     0.279 C 
BRANCH  14  15
ATOM     15  N1  <0> d   1      -1.421  -1.814  -1.313  0.00  0.00    -0.062 N 
ATOM     16  C4  <0> d   1      -0.035  -2.160  -1.688  0.00  0.00     0.190 C 
ATOM     17  C3  <0> d   1       0.592  -0.768  -1.979  0.00  0.00     0.044 C 
ATOM     18  C5  <0> d   1       0.736  -2.785  -0.543  0.00  0.00     0.042 C 
ATOM     19  C2  <0> d   1       0.060   0.012  -0.745  0.00  0.00    -0.017 C 
ATOM     20  C1  <0> d   1       0.039   1.530  -0.977  0.00  0.00     0.017 C 
ATOM     21  C7  <0> d   1       0.941  -0.393   0.437  0.00  0.00     0.019 C 
ATOM     22  C10 <0> d   1      -1.356  -0.569  -0.525  0.00  0.00     0.244 C 
ATOM     23  C6  <0> d   1       1.080  -1.890   0.627  0.00  0.00    -0.045 C 
ATOM     24  C8  <0> d   1       0.261  -2.320   1.859  0.00  0.00     0.015 C 
ATOM     25  C9  <0> d   1       2.563  -2.164   0.989  0.00  0.00     0.015 C 
ATOM     26  H30 <0> d   1      -1.944  -1.616  -2.170  0.00  0.00     0.280 HD
ENDBRANCH  14  15
ENDBRANCH   1  14
BRANCH   2  27
ATOM     27  O3  <0> d   1      -4.090  -3.250  -2.558  0.00  0.00    -0.360 OA
ATOM     28  H29 <0> d   1      -4.219  -4.207  -2.603  0.00  0.00     0.217 HD
ENDBRANCH   2  27
BRANCH  10  29
ATOM     29  O2  <0> d   1      -7.017  -0.829   2.606  0.00  0.00    -0.359 OA
ATOM     30  H31 <0> d   1      -7.169  -0.417   3.467  0.00  0.00     0.217 HD
ENDBRANCH  10  29
BRANCH   9  31
ATOM     31  C21 <0> d   1      -5.015   0.082   4.447  0.00  0.00     0.116 A 
ATOM     32  S1  <0> d   1      -3.892   0.702   5.692  0.00  0.00    -0.067 SA
ATOM     33  C27 <0> d   1      -5.123   1.235   6.857  0.00  0.00     0.035 A 
ATOM     34  C22 <0> d   1      -6.329   0.888   6.203  0.00  0.00     0.075 A 
ATOM     35  C26 <0> d   1      -5.096   1.829   8.094  0.00  0.00     0.021 A 
ATOM     36  N2  <0> d   1      -6.193   0.311   4.992  0.00  0.00    -0.239 NA
ATOM     37  C23 <0> d   1      -7.525   1.189   6.898  0.00  0.00     0.033 A 
ATOM     38  C24 <0> d   1      -7.487   1.782   8.132  0.00  0.00     0.002 A 
ATOM     39  C25 <0> d   1      -6.285   2.109   8.743  0.00  0.00     0.002 A 
ENDBRANCH   9  31
TORSDOF 5
