REMARK  5 active torsions:
REMARK  status: ('A' for Active; 'I' for Inactive)
REMARK    1  A    between atoms: C8_8  and  C11_13 
REMARK    2  A    between atoms: C11_13  and  N1_14 
REMARK    3  A    between atoms: N2_17  and  C16_20 
REMARK    4  A    between atoms: C16_20  and  C17_21 
REMARK    5  A    between atoms: C17_21  and  C18_22 
ROOT
ATOM      1  N1  <0> d   1       1.428  -1.797   4.133  0.00  0.00     0.096 N 
ATOM      2  C12 <0> d   1       2.233  -3.002   4.375  0.00  0.00     0.303 C 
ATOM      3  C13 <0> d   1       3.677  -2.595   4.680  0.00  0.00     0.302 C 
ATOM      4  N2  <0> d   1       3.696  -1.707   5.851  0.00  0.00     0.092 N 
ATOM      5  C14 <0> d   1       2.890  -0.502   5.608  0.00  0.00     0.302 C 
ATOM      6  C15 <0> d   1       1.447  -0.910   5.304  0.00  0.00     0.303 C 
ENDROOT
BRANCH   1   7
ATOM      7  C11 <0> d   1       0.051  -2.150   3.762  0.00  0.00     0.312 C 
BRANCH   7   8
ATOM      8  C8  <0> d   1       0.053  -2.850   2.428  0.00  0.00    -0.011 A 
ATOM      9  C6  <0> d   1       0.037  -2.087   1.176  0.00  0.00     0.007 A 
ATOM     10  C5  <0> d   1       0.041  -2.781  -0.046  0.00  0.00     0.090 A 
ATOM     11  C7  <0> d   1       0.023  -0.689   1.185  0.00  0.00     0.021 A 
ATOM     12  C4  <0> d   1       0.025  -2.065  -1.236  0.00  0.00     0.039 A 
ATOM     13  O2  <0> d   1       0.059  -4.131  -0.052  0.00  0.00    -0.275 OA
ATOM     14  C3  <0> d   1       0.006  -0.686  -1.206  0.00  0.00     0.009 A 
ATOM     15  C2  <0> d   1       0.002  -0.004   0.002  0.00  0.00    -0.061 A 
ATOM     16  C1  <0> d   1      -0.018   1.503   0.010  0.00  0.00     0.048 C 
ATOM     17  C10 <0> d   1       0.074  -4.837   1.089  0.00  0.00     0.288 A 
ATOM     18  C9  <0> d   1       0.072  -4.205   2.351  0.00  0.00     0.092 A 
ATOM     19  O1  <0> d   1       0.091  -6.053   1.034  0.00  0.00    -0.260 OA
ENDBRANCH   7   8
ENDBRANCH   1   7
BRANCH   4  20
ATOM     20  C16 <0> d   1       5.073  -1.354   6.222  0.00  0.00     0.278 C 
BRANCH  20  21
ATOM     21  C17 <0> d   1       5.070  -0.643   7.577  0.00  0.00     0.089 C 
BRANCH  21  22
ATOM     22  C18 <0> d   1       6.482  -0.281   7.957  0.00  0.00     0.035 A 
ATOM     23  N3  <0> d   1       7.408  -1.220   7.996  0.00  0.00    -0.266 NA
ATOM     24  C22 <0> d   1       8.658  -0.948   8.318  0.00  0.00     0.117 A 
ATOM     25  C21 <0> d   1       9.041   0.340   8.639  0.00  0.00     0.019 A 
ATOM     26  C20 <0> d   1       8.094   1.353   8.614  0.00  0.00     0.003 A 
ATOM     27  C19 <0> d   1       6.792   1.030   8.265  0.00  0.00     0.027 A 
ENDBRANCH  21  22
ENDBRANCH  20  21
ENDBRANCH   4  20
TORSDOF 5
