REMARK  4 active torsions:
REMARK  status: ('A' for Active; 'I' for Inactive)
REMARK    1  A    between atoms: C9_10  and  C10_11 
REMARK    2  A    between atoms: C13_14  and  O2_17 
REMARK    3  A    between atoms: N1_22  and  C20_25 
REMARK    4  A    between atoms: C20_25  and  C21_26 
ROOT
ATOM      1  C1  <0> d   1      -2.022   3.657  -6.146  0.00  0.00     0.054 C 
ATOM      2  C2  <0> d   1      -3.066   3.484  -5.073  0.00  0.00     0.007 A 
ATOM      3  C3  <0> d   1      -2.678   3.223  -3.766  0.00  0.00     0.087 A 
ATOM      4  C4  <0> d   1      -3.633   3.062  -2.768  0.00  0.00     0.005 A 
ATOM      5  C5  <0> d   1      -4.964   3.160  -3.069  0.00  0.00     0.030 A 
ATOM      6  C6  <0> d   1      -5.367   3.421  -4.378  0.00  0.00     0.052 A 
ATOM      7  C7  <0> d   1      -4.412   3.587  -5.395  0.00  0.00     0.099 A 
ATOM      8  O1  <0> d   1      -5.035   3.829  -6.569  0.00  0.00    -0.305 OA
ATOM      9  C8  <0> d   1      -6.382   3.842  -6.431  0.00  0.00     0.127 A 
ATOM     10  C9  <0> d   1      -7.288   4.057  -7.419  0.00  0.00     0.053 C 
ATOM     11  C17 <0> d   1      -6.686   3.582  -5.016  0.00  0.00     0.218 A 
ATOM     12  O3  <0> d   1      -7.783   3.514  -4.489  0.00  0.00    -0.284 OA
ATOM     13  C18 <0> d   1      -3.221   2.781  -1.345  0.00  0.00     0.317 C 
ATOM     14  N1  <0> d   1      -1.827   2.315  -1.319  0.00  0.00     0.121 N 
ATOM     15  C19 <0> d   1      -0.974   3.221  -2.105  0.00  0.00     0.448 C 
ATOM     16  O4  <0> d   1      -1.353   3.125  -3.480  0.00  0.00    -0.320 OA
ENDROOT
BRANCH  10  17
ATOM     17  C10 <0> d   1      -6.832   4.418  -8.767  0.00  0.00    -0.033 A 
ATOM     18  C15 <0> d   1      -5.464   4.417  -9.070  0.00  0.00     0.014 A 
ATOM     19  C14 <0> d   1      -5.042   4.756 -10.335  0.00  0.00     0.037 A 
ATOM     20  C13 <0> d   1      -5.970   5.100 -11.312  0.00  0.00     0.068 A 
ATOM     21  C12 <0> d   1      -7.329   5.103 -11.017  0.00  0.00     0.037 A 
ATOM     22  C11 <0> d   1      -7.762   4.760  -9.756  0.00  0.00     0.014 A 
BRANCH  20  23
ATOM     23  O2  <0> d   1      -5.548   5.433 -12.558  0.00  0.00    -0.356 OA
ATOM     24  C16 <0> d   1      -6.554   5.776 -13.514  0.00  0.00     0.210 C 
ENDBRANCH  20  23
ENDBRANCH  10  17
BRANCH  14  25
ATOM     25  C20 <0> d   1      -1.338   2.196   0.061  0.00  0.00     0.334 C 
BRANCH  25  26
ATOM     26  C21 <0> d   1      -0.006   1.490   0.063  0.00  0.00     0.062 A 
ATOM     27  N2  <0> d   1       0.032   0.172   0.067  0.00  0.00    -0.264 NA
ATOM     28  C25 <0> d   1       1.173  -0.489   0.063  0.00  0.00     0.117 A 
ATOM     29  C24 <0> d   1       2.379   0.184   0.055  0.00  0.00     0.019 A 
ATOM     30  C23 <0> d   1       2.380   1.571   0.050  0.00  0.00     0.003 A 
ATOM     31  C22 <0> d   1       1.160   2.231   0.054  0.00  0.00     0.029 A 
ENDBRANCH  25  26
ENDBRANCH  14  25
TORSDOF 4
