REMARK  5 active torsions:
REMARK  status: ('A' for Active; 'I' for Inactive)
REMARK    1  A    between atoms: C3_3  and  C17_22 
REMARK    2  A    between atoms: C9_10  and  C11_13 
REMARK    3  A    between atoms: C11_13  and  N1_14 
REMARK    4  A    between atoms: N1_14  and  C12_15 
REMARK    5  A    between atoms: C12_15  and  C13_16 
ROOT
ATOM      1  C1  <0> d   1      -1.355  -1.839  -4.809  0.00  0.00     0.077 C 
ATOM      2  C2  <0> d   1      -1.309  -2.685  -3.563  0.00  0.00     0.065 A 
ATOM      3  C3  <0> d   1      -1.256  -4.036  -3.693  0.00  0.00     0.054 A 
ATOM      4  C4  <0> d   1      -1.212  -4.864  -2.475  0.00  0.00     0.198 A 
ATOM      5  O1  <0> d   1      -1.164  -6.080  -2.531  0.00  0.00    -0.286 OA
ATOM      6  C5  <0> d   1      -1.229  -4.149  -1.186  0.00  0.00     0.050 A 
ATOM      7  C6  <0> d   1      -1.190  -4.840   0.025  0.00  0.00     0.021 A 
ATOM      8  C7  <0> d   1      -1.206  -4.147   1.202  0.00  0.00     0.041 A 
ATOM      9  C8  <0> d   1      -1.262  -2.755   1.197  0.00  0.00     0.118 A 
ATOM     10  C9  <0> d   1      -1.301  -2.055   0.003  0.00  0.00     0.039 A 
ATOM     11  C10 <0> d   1      -1.291  -2.744  -1.202  0.00  0.00     0.100 A 
ATOM     12  O2  <0> d   1      -1.322  -2.078  -2.373  0.00  0.00    -0.313 OA
ATOM     13  O3  <0> d   1      -1.278  -2.079   2.374  0.00  0.00    -0.191 OA
ENDROOT
BRANCH  10  14
ATOM     14  C11 <0> d   1      -1.362  -0.549   0.012  0.00  0.00     0.276 C 
BRANCH  14  15
ATOM     15  N1  <0> d   1       0.002  -0.004   0.002  0.00  0.00    -0.067 N 
ATOM     16  H8  <0> d   1       0.543  -0.354   0.893  0.00  0.00     0.277 HD
ATOM     17  H18 <0> d   1       0.526  -0.345  -0.903  0.00  0.00     0.277 HD
BRANCH  15  18
ATOM     18  C12 <0> d   1      -0.018   1.465   0.010  0.00  0.00     0.278 C 
BRANCH  18  19
ATOM     19  C13 <0> d   1       1.396   1.986  -0.001  0.00  0.00     0.008 A 
ATOM     20  S1  <0> d   1       2.464   2.368   1.378  0.00  0.00    -0.105 SA
ATOM     21  C16 <0> d   1       3.892   2.902   0.450  0.00  0.00     0.050 A 
ATOM     22  C15 <0> d   1       3.466   2.757  -0.829  0.00  0.00     0.008 A 
ATOM     23  C14 <0> d   1       2.189   2.282  -1.060  0.00  0.00     0.017 A 
ENDBRANCH  18  19
ENDBRANCH  15  18
ENDBRANCH  14  15
ENDBRANCH  10  14
BRANCH   3  24
ATOM     24  C17 <0> d   1      -1.244  -4.666  -5.036  0.00  0.00    -0.019 A 
ATOM     25  C22 <0> d   1      -2.310  -5.467  -5.442  0.00  0.00     0.015 A 
ATOM     26  C21 <0> d   1      -2.294  -6.051  -6.692  0.00  0.00     0.043 A 
ATOM     27  C20 <0> d   1      -1.222  -5.841  -7.544  0.00  0.00     0.116 A 
ATOM     28  C19 <0> d   1      -0.160  -5.045  -7.144  0.00  0.00     0.043 A 
ATOM     29  F1  <0> d   1      -1.210  -6.414  -8.767  0.00  0.00    -0.206 F 
ATOM     30  C18 <0> d   1      -0.169  -4.454  -5.898  0.00  0.00     0.015 A 
ENDBRANCH   3  24
TORSDOF 5
