REMARK  3 active torsions:
REMARK  status: ('A' for Active; 'I' for Inactive)
REMARK    1  A    between atoms: C4_4  and  C7_7 
REMARK    2  A    between atoms: C15_17  and  C16_18 
REMARK    3  A    between atoms: C16_18  and  N1_19 
ROOT
ATOM      1  C7  <0> d   1      -0.018   1.479   0.010  0.00  0.00     0.048 A 
ATOM      2  C8  <0> d   1       1.141   2.187   0.003  0.00  0.00     0.159 A 
ATOM      3  O1  <0> d   1       1.168   3.522   0.009  0.00  0.00    -0.320 OA
ATOM      4  C9  <0> d   1       0.056   4.284   0.024  0.00  0.00     0.100 A 
ATOM      5  C10 <0> d   1      -1.216   3.684   0.032  0.00  0.00     0.050 A 
ATOM      6  C11 <0> d   1      -1.295   2.212   0.020  0.00  0.00     0.197 A 
ATOM      7  O2  <0> d   1      -2.366   1.630   0.022  0.00  0.00    -0.286 OA
ATOM      8  C12 <0> d   1      -2.367   4.471   0.047  0.00  0.00     0.021 A 
ATOM      9  C13 <0> d   1      -2.258   5.833   0.052  0.00  0.00     0.041 A 
ATOM     10  C14 <0> d   1      -1.003   6.437   0.043  0.00  0.00     0.118 A 
ATOM     11  C15 <0> d   1       0.150   5.669   0.029  0.00  0.00     0.039 A 
ATOM     12  O4  <0> d   1      -0.908   7.792   0.049  0.00  0.00    -0.191 OA
ENDROOT
BRANCH  11  13
ATOM     13  C16 <0> d   1       1.501   6.335   0.019  0.00  0.00     0.281 C 
BRANCH  13  14
ATOM     14  N1  <0> d   1       1.927   6.558  -1.369  0.00  0.00    -0.046 N 
ATOM     15  C20 <0> d   1       1.053   7.531  -2.038  0.00  0.00     0.402 C 
ATOM     16  O3  <0> d   1       1.540   7.783  -3.358  0.00  0.00    -0.364 OA
ATOM     17  C19 <0> d   1       1.582   6.620  -4.191  0.00  0.00     0.171 C 
ATOM     18  C18 <0> d   1       2.480   5.567  -3.535  0.00  0.00     0.054 C 
ATOM     19  C17 <0> d   1       1.972   5.293  -2.116  0.00  0.00     0.240 C 
ATOM     20  H19 <0> d   1       2.945   6.976  -1.346  0.00  0.00     0.282 HD
ENDBRANCH  13  14
ENDBRANCH  11  13
BRANCH   1  21
ATOM     21  C4  <0> d   1       0.002  -0.004   0.002  0.00  0.00    -0.020 A 
ATOM     22  C3  <0> d   1       0.777  -0.688  -0.933  0.00  0.00     0.012 A 
ATOM     23  C2  <0> d   1       0.793  -2.068  -0.935  0.00  0.00     0.001 A 
ATOM     24  C1  <0> d   1       0.040  -2.772  -0.013  0.00  0.00     0.000 A 
ATOM     25  C6  <0> d   1      -0.732  -2.099   0.917  0.00  0.00     0.001 A 
ATOM     26  C5  <0> d   1      -0.750  -0.719   0.933  0.00  0.00     0.012 A 
ENDBRANCH   1  21
TORSDOF 3
