REMARK  6 active torsions:
REMARK  status: ('A' for Active; 'I' for Inactive)
REMARK    1  A    between atoms: N1_4  and  C7_9 
REMARK    2  A    between atoms: C7_9  and  C8_10 
REMARK    3  A    between atoms: C8_10  and  O2_11 
REMARK    4  A    between atoms: O2_11  and  C9_12 
REMARK    5  A    between atoms: C14_18  and  C16_22 
REMARK    6  A    between atoms: C19_25  and  O4_28 
ROOT
ATOM      1  C9  <0> d   1      -2.551  -6.058   0.938  0.00  0.00     0.072 A 
ATOM      2  C10 <0> d   1      -2.696  -6.779  -0.231  0.00  0.00     0.092 A 
ATOM      3  C11 <0> d   1      -2.498  -8.164  -0.222  0.00  0.00     0.187 A 
ATOM      4  O3  <0> d   1      -2.624  -8.814  -1.254  0.00  0.00    -0.287 OA
ATOM      5  C12 <0> d   1      -2.151  -8.809   0.993  0.00  0.00     0.043 A 
ATOM      6  C13 <0> d   1      -1.946 -10.209   1.025  0.00  0.00     0.074 A 
ATOM      7  C14 <0> d   1      -1.549 -11.021  -0.060  0.00  0.00     0.020 A 
ATOM      8  C15 <0> d   1      -1.466 -12.319   0.396  0.00  0.00     0.121 A 
ATOM      9  N2  <0> d   1      -1.796 -12.334   1.714  0.00  0.00    -0.310 N 
ATOM     10  N3  <0> d   1      -2.090 -11.025   2.115  0.00  0.00    -0.299 N 
ATOM     11  C23 <0> d   1      -2.012  -8.046   2.164  0.00  0.00     0.020 A 
ATOM     12  C24 <0> d   1      -2.204  -6.699   2.130  0.00  0.00     0.038 A 
ATOM     13  H19 <0> d   1      -1.819 -13.119   2.283  0.00  0.00     0.186 HD
ATOM     14  H20 <0> d   1      -2.351 -10.746   3.006  0.00  0.00     0.187 HD
ENDROOT
BRANCH   7  15
ATOM     15  C16 <0> d   1      -1.272 -10.560  -1.442  0.00  0.00    -0.022 A 
ATOM     16  C21 <0> d   1      -2.078 -10.987  -2.496  0.00  0.00     0.015 A 
ATOM     17  C20 <0> d   1      -1.821 -10.553  -3.780  0.00  0.00     0.037 A 
ATOM     18  C19 <0> d   1      -0.753  -9.700  -4.024  0.00  0.00     0.068 A 
ATOM     19  C18 <0> d   1       0.055  -9.277  -2.978  0.00  0.00     0.037 A 
ATOM     20  C17 <0> d   1      -0.201  -9.704  -1.691  0.00  0.00     0.015 A 
BRANCH  18  21
ATOM     21  O4  <0> d   1      -0.498  -9.278  -5.291  0.00  0.00    -0.356 OA
ATOM     22  C22 <0> d   1      -1.369  -9.752  -6.320  0.00  0.00     0.210 C 
ENDBRANCH  18  21
ENDBRANCH   7  15
BRANCH   1  23
ATOM     23  O2  <0> d   1      -2.743  -4.714   0.928  0.00  0.00    -0.349 OA
BRANCH  23  24
ATOM     24  C8  <0> d   1      -3.097  -4.119  -0.323  0.00  0.00     0.203 C 
BRANCH  24  25
ATOM     25  C7  <0> d   1      -3.269  -2.610  -0.138  0.00  0.00     0.261 C 
BRANCH  25  26
ATOM     26  N1  <0> d   1      -1.981  -2.011   0.234  0.00  0.00    -0.064 N 
ATOM     27  C3  <0> d   1      -1.037  -2.145  -0.884  0.00  0.00     0.266 C 
ATOM     28  C2  <0> d   1       0.305  -1.520  -0.493  0.00  0.00     0.143 C 
ATOM     29  C1  <0> d   1       1.271  -1.603  -1.677  0.00  0.00     0.041 C 
ATOM     30  O1  <0> d   1       0.103  -0.150  -0.137  0.00  0.00    -0.378 OA
ATOM     31  C5  <0> d   1      -0.829   0.033   0.933  0.00  0.00     0.143 C 
ATOM     32  C4  <0> d   1      -2.173  -0.588   0.545  0.00  0.00     0.266 C 
ATOM     33  C6  <0> d   1      -1.015   1.528   1.199  0.00  0.00     0.041 C 
ATOM     34  H30 <0> d   1      -1.611  -2.486   1.045  0.00  0.00     0.280 HD
ENDBRANCH  25  26
ENDBRANCH  24  25
ENDBRANCH  23  24
ENDBRANCH   1  23
TORSDOF 6
