REMARK  4 active torsions:
REMARK  status: ('A' for Active; 'I' for Inactive)
REMARK    1  A    between atoms: N2_5  and  C6_8 
REMARK    2  A    between atoms: C6_8  and  C7_9 
REMARK    3  A    between atoms: C8_10  and  O3_26 
REMARK    4  A    between atoms: C14_17  and  C15_18 
ROOT
ATOM      1  C7  <0> d   1       4.380  -0.149   2.249  0.00  0.00     0.038 A 
ATOM      2  C8  <0> d   1       4.861   1.035   2.786  0.00  0.00     0.076 A 
ATOM      3  C9  <0> d   1       6.196   1.395   2.624  0.00  0.00     0.038 A 
ATOM      4  C10 <0> d   1       7.047   0.581   1.931  0.00  0.00     0.021 A 
ATOM      5  C11 <0> d   1       6.577  -0.614   1.386  0.00  0.00     0.051 A 
ATOM      6  C12 <0> d   1       5.234  -0.991   1.547  0.00  0.00     0.101 A 
ATOM      7  O1  <0> d   1       5.014  -2.173   0.932  0.00  0.00    -0.305 OA
ATOM      8  C13 <0> d   1       6.139  -2.655   0.352  0.00  0.00     0.127 A 
ATOM      9  C14 <0> d   1       6.250  -3.818  -0.337  0.00  0.00     0.053 C 
ATOM     10  C21 <0> d   1       7.218  -1.686   0.604  0.00  0.00     0.218 A 
ATOM     11  O2  <0> d   1       8.381  -1.756   0.246  0.00  0.00    -0.284 OA
ENDROOT
BRANCH   1  12
ATOM     12  C6  <0> d   1       2.933  -0.526   2.432  0.00  0.00     0.317 C 
BRANCH  12  13
ATOM     13  N2  <0> d   1       2.141   0.014   1.319  0.00  0.00     0.096 N 
ATOM     14  C3  <0> d   1       2.123   1.483   1.349  0.00  0.00     0.300 C 
ATOM     15  C2  <0> d   1       1.357   2.006   0.132  0.00  0.00     0.264 C 
ATOM     16  N1  <0> d   1      -0.009   1.465   0.146  0.00  0.00    -0.072 N 
ATOM     17  C1  <0> d   1      -0.800   2.005  -0.968  0.00  0.00     0.269 C 
ATOM     18  C5  <0> d   1       0.009  -0.004   0.115  0.00  0.00     0.264 C 
ATOM     19  H23 <0> d   1      -0.489   1.780   1.084  0.00  0.00     0.279 HD
ATOM     20  C4  <0> d   1       0.775  -0.527   1.333  0.00  0.00     0.300 C 
ENDBRANCH  12  13
ENDBRANCH   1  12
BRANCH   2  21
ATOM     21  O3  <0> d   1       4.023   1.850   3.475  0.00  0.00    -0.360 OA
ATOM     22  H22 <0> d   1       4.400   2.791   3.903  0.00  0.00     0.217 HD
ENDBRANCH   2  21
BRANCH   9  23
ATOM     23  C15 <0> d   1       5.108  -4.741  -0.409  0.00  0.00    -0.034 A 
ATOM     24  C20 <0> d   1       3.868  -4.369   0.121  0.00  0.00     0.011 A 
ATOM     25  C19 <0> d   1       2.802  -5.241   0.049  0.00  0.00     0.001 A 
ATOM     26  C18 <0> d   1       2.957  -6.481  -0.546  0.00  0.00     0.000 A 
ATOM     27  C17 <0> d   1       4.181  -6.857  -1.072  0.00  0.00     0.001 A 
ATOM     28  C16 <0> d   1       5.255  -5.995  -1.014  0.00  0.00     0.011 A 
ENDBRANCH   9  23
TORSDOF 4
