REMARK  4 active torsions:
REMARK  status: ('A' for Active; 'I' for Inactive)
REMARK    1  A    between atoms: C3_3  and  C11_16 
REMARK    2  A    between atoms: C4_4  and  C5_8 
REMARK    3  A    between atoms: C8_11  and  O2_15 
REMARK    4  A    between atoms: C10_13  and  O1_14 
ROOT
ATOM      1  C1  <0> d   1      -0.241   1.490   0.004  0.00  0.00     0.070 C 
ATOM      2  C2  <0> d   1      -0.093  -0.009  -0.001  0.00  0.00     0.037 A 
ATOM      3  C3  <0> d   1       0.060  -0.797  -1.102  0.00  0.00     0.029 A 
ATOM      4  C4  <0> d   1       0.161  -2.139  -0.655  0.00  0.00     0.103 A 
ATOM      5  N1  <0> d   1       0.070  -2.134   0.657  0.00  0.00    -0.173 NA
ATOM      6  N2  <0> d   1      -0.084  -0.810   1.085  0.00  0.00    -0.281 N 
ATOM      7  H1  <0> d   1      -0.171  -0.518   2.006  0.00  0.00     0.189 HD
ENDROOT
BRANCH   4   8
ATOM      8  C5  <0> d   1       0.337  -3.334  -1.514  0.00  0.00     0.029 A 
ATOM      9  C10 <0> d   1      -0.460  -4.466  -1.312  0.00  0.00     0.081 A 
ATOM     10  C9  <0> d   1      -0.294  -5.578  -2.121  0.00  0.00     0.074 A 
ATOM     11  C8  <0> d   1       0.667  -5.571  -3.121  0.00  0.00     0.068 A 
ATOM     12  C7  <0> d   1       1.462  -4.449  -3.318  0.00  0.00     0.037 A 
ATOM     13  C6  <0> d   1       1.300  -3.336  -2.521  0.00  0.00     0.019 A 
BRANCH   9  14
ATOM     14  O1  <0> d   1      -1.397  -4.473  -0.329  0.00  0.00    -0.360 OA
ATOM     15  H8  <0> d   1      -2.265  -4.156  -0.611  0.00  0.00     0.217 HD
ENDBRANCH   9  14
BRANCH  11  16
ATOM     16  O2  <0> d   1       0.832  -6.665  -3.910  0.00  0.00    -0.361 OA
ATOM     17  H9  <0> d   1       1.474  -7.303  -3.569  0.00  0.00     0.217 HD
ENDBRANCH  11  16
ENDBRANCH   4   8
BRANCH   3  18
ATOM     18  C11 <0> d   1       0.112  -0.335  -2.511  0.00  0.00    -0.021 A 
ATOM     19  C16 <0> d   1       1.181   0.442  -2.953  0.00  0.00     0.014 A 
ATOM     20  C15 <0> d   1       1.228   0.866  -4.265  0.00  0.00     0.024 A 
ATOM     21  C14 <0> d   1       0.209   0.528  -5.140  0.00  0.00     0.034 A 
ATOM     22  C13 <0> d   1      -0.858  -0.240  -4.705  0.00  0.00     0.024 A 
ATOM     23 Cl1  <0> d   1       0.270   1.069  -6.789  0.00  0.00    -0.084 Cl
ATOM     24  C12 <0> d   1      -0.910  -0.672  -3.395  0.00  0.00     0.014 A 
ENDBRANCH   3  18
TORSDOF 4
