REMARK  4 active torsions:
REMARK  status: ('A' for Active; 'I' for Inactive)
REMARK    1  A    between atoms: C4_4  and  C7_7 
REMARK    2  A    between atoms: C15_17  and  C16_18 
REMARK    3  A    between atoms: C16_18  and  N1_19 
REMARK    4  A    between atoms: C21_24  and  C22_25 
ROOT
ATOM      1  C7  <0> d   1      -0.112   1.200   1.145  0.00  0.00     0.048 A 
ATOM      2  C8  <0> d   1      -0.165  -0.138   0.915  0.00  0.00     0.159 A 
ATOM      3  O1  <0> d   1       0.929  -0.876   0.712  0.00  0.00    -0.320 OA
ATOM      4  C9  <0> d   1       2.177  -0.367   0.718  0.00  0.00     0.100 A 
ATOM      5  C10 <0> d   1       2.382   1.005   0.945  0.00  0.00     0.050 A 
ATOM      6  C11 <0> d   1       1.204   1.861   1.173  0.00  0.00     0.197 A 
ATOM      7  O2  <0> d   1       1.314   3.058   1.375  0.00  0.00    -0.286 OA
ATOM      8  C12 <0> d   1       3.673   1.534   0.951  0.00  0.00     0.021 A 
ATOM      9  C13 <0> d   1       4.743   0.713   0.735  0.00  0.00     0.041 A 
ATOM     10  C14 <0> d   1       4.551  -0.648   0.509  0.00  0.00     0.118 A 
ATOM     11  C15 <0> d   1       3.275  -1.188   0.500  0.00  0.00     0.039 A 
ATOM     12  O3  <0> d   1       5.623  -1.453   0.296  0.00  0.00    -0.191 OA
ENDROOT
BRANCH  11  13
ATOM     13  C16 <0> d   1       3.080  -2.662   0.254  0.00  0.00     0.280 C 
BRANCH  13  14
ATOM     14  N1  <0> d   1       3.064  -2.919  -1.192  0.00  0.00    -0.059 N 
ATOM     15  C21 <0> d   1       3.080  -4.361  -1.470  0.00  0.00     0.223 C 
ATOM     16  C20 <0> d   1       3.210  -4.590  -2.978  0.00  0.00     0.038 C 
ATOM     17  C19 <0> d   1       2.029  -3.926  -3.693  0.00  0.00     0.004 C 
ATOM     18  C18 <0> d   1       2.007  -2.434  -3.348  0.00  0.00     0.028 C 
ATOM     19  C17 <0> d   1       1.913  -2.268  -1.829  0.00  0.00     0.236 C 
ATOM     20  H24 <0> d   1       3.977  -2.484  -1.625  0.00  0.00     0.281 HD
BRANCH  15  21
ATOM     21  C22 <0> d   1       4.251  -4.995  -0.764  0.00  0.00    -0.010 A 
ATOM     22  C26 <0> d   1       5.506  -4.422  -0.836  0.00  0.00     0.125 A 
ATOM     23  N2  <0> d   1       6.534  -4.969  -0.216  0.00  0.00    -0.273 NA
ATOM     24  C25 <0> d   1       6.411  -6.080   0.483  0.00  0.00     0.116 A 
ATOM     25  C24 <0> d   1       5.187  -6.713   0.595  0.00  0.00     0.020 A 
ATOM     26  C23 <0> d   1       4.083  -6.165  -0.038  0.00  0.00     0.012 A 
ENDBRANCH  15  21
ENDBRANCH  13  14
ENDBRANCH  11  13
BRANCH   1  27
ATOM     27  C4  <0> d   1      -1.355   1.980   1.359  0.00  0.00    -0.020 A 
ATOM     28  C3  <0> d   1      -2.417   1.862   0.465  0.00  0.00     0.012 A 
ATOM     29  C2  <0> d   1      -3.571   2.591   0.669  0.00  0.00     0.001 A 
ATOM     30  C1  <0> d   1      -3.675   3.437   1.758  0.00  0.00     0.000 A 
ATOM     31  C6  <0> d   1      -2.624   3.558   2.649  0.00  0.00     0.001 A 
ATOM     32  C5  <0> d   1      -1.467   2.830   2.458  0.00  0.00     0.012 A 
ENDBRANCH   1  27
TORSDOF 4
