REMARK  5 active torsions:
REMARK  status: ('A' for Active; 'I' for Inactive)
REMARK    1  A    between atoms: C2_2  and  N1_3 
REMARK    2  A    between atoms: C4_5  and  C11_12 
REMARK    3  A    between atoms: C17_19  and  O3_31 
REMARK    4  A    between atoms: C18_20  and  C20_23 
REMARK    5  A    between atoms: C20_23  and  N2_24 
ROOT
ATOM      1  C11 <0> d   1       5.957  -3.131   1.704  0.00  0.00     0.055 C 
ATOM      2  C12 <0> d   1       4.853  -3.154   0.905  0.00  0.00     0.128 A 
ATOM      3  C13 <0> d   1       4.803  -3.643  -0.427  0.00  0.00     0.218 A 
ATOM      4  O1  <0> d   1       5.719  -4.119  -1.077  0.00  0.00    -0.284 OA
ATOM      5  C14 <0> d   1       3.406  -3.454  -0.855  0.00  0.00     0.051 A 
ATOM      6  C15 <0> d   1       2.718  -3.726  -2.038  0.00  0.00     0.021 A 
ATOM      7  C16 <0> d   1       1.388  -3.428  -2.135  0.00  0.00     0.038 A 
ATOM      8  C17 <0> d   1       0.717  -2.858  -1.057  0.00  0.00     0.076 A 
ATOM      9  C18 <0> d   1       1.388  -2.577   0.122  0.00  0.00     0.036 A 
ATOM     10  C19 <0> d   1       2.739  -2.874   0.237  0.00  0.00     0.101 A 
ATOM     11  O2  <0> d   1       3.619  -2.714   1.249  0.00  0.00    -0.305 OA
ENDROOT
BRANCH   1  12
ATOM     12  C4  <0> d   1       5.866  -2.597   3.061  0.00  0.00    -0.005 A 
ATOM     13  C3  <0> d   1       4.745  -2.078   3.672  0.00  0.00     0.103 A 
ATOM     14  N1  <0> d   1       5.056  -1.688   4.933  0.00  0.00    -0.356 N 
ATOM     15  C6  <0> d   1       6.390  -1.924   5.197  0.00  0.00     0.045 A 
ATOM     16  C5  <0> d   1       6.958  -2.500   4.049  0.00  0.00     0.002 A 
ATOM     17  C7  <0> d   1       7.189  -1.705   6.315  0.00  0.00     0.030 A 
ATOM     18  C10 <0> d   1       8.306  -2.846   4.035  0.00  0.00     0.014 A 
ATOM     19  C9  <0> d   1       9.081  -2.620   5.152  0.00  0.00     0.001 A 
ATOM     20  C8  <0> d   1       8.522  -2.052   6.287  0.00  0.00     0.002 A 
BRANCH  14  21
ATOM     21  C2  <0> d   1       4.111  -1.092   5.880  0.00  0.00     0.124 C 
ATOM     22  C1  <0> d   1       4.203   0.433   5.802  0.00  0.00     0.027 C 
ENDBRANCH  14  21
ENDBRANCH   1  12
BRANCH   9  23
ATOM     23  C20 <0> d   1       0.651  -1.955   1.280  0.00  0.00     0.279 C 
BRANCH  23  24
ATOM     24  N2  <0> d   1       0.729  -0.491   1.181  0.00  0.00    -0.067 N 
ATOM     25  C25 <0> d   1       2.126  -0.039   1.168  0.00  0.00     0.239 C 
ATOM     26  C24 <0> d   1       2.169   1.490   1.211  0.00  0.00     0.007 C 
ATOM     27  C23 <0> d   1       1.420   2.051  -0.001  0.00  0.00     0.007 C 
ATOM     28  C26 <0> d   1       3.624   1.962   1.176  0.00  0.00     0.011 C 
ATOM     29  C22 <0> d   1      -0.019   1.526   0.010  0.00  0.00     0.028 C 
ATOM     30  C21 <0> d   1       0.002  -0.004   0.002  0.00  0.00     0.235 C 
ATOM     31  H28 <0> d   1       0.247  -0.064   2.073  0.00  0.00     0.280 HD
ENDBRANCH  23  24
ENDBRANCH   9  23
BRANCH   8  32
ATOM     32  O3  <0> d   1      -0.606  -2.572  -1.163  0.00  0.00    -0.360 OA
ATOM     33  H29 <0> d   1      -1.141  -2.122  -0.314  0.00  0.00     0.217 HD
ENDBRANCH   8  32
TORSDOF 5
