REMARK  11 active torsions:
REMARK  status: ('A' for Active; 'I' for Inactive)
REMARK    1  A    between atoms: C3_4  and  C11_13 
REMARK    2  A    between atoms: C8_9  and  O1_11 
REMARK    3  A    between atoms: C17_20  and  O6_34 
REMARK    4  A    between atoms: C18_21  and  C20_24 
REMARK    5  A    between atoms: C20_24  and  N2_25 
REMARK    6  A    between atoms: N2_25  and  C21_26 
REMARK    7  A    between atoms: N2_25  and  C24_30 
REMARK    8  A    between atoms: C21_26  and  C22_27 
REMARK    9  A    between atoms: C22_27  and  O4_28 
REMARK   10  A    between atoms: C24_30  and  C25_31 
REMARK   11  A    between atoms: C25_31  and  O5_32 
ROOT
ATOM      1  C11 <0> d   1       4.391  -0.605  -0.779  0.00  0.00     0.055 C 
ATOM      2  C12 <0> d   1       5.365  -1.557  -0.771  0.00  0.00     0.128 A 
ATOM      3  C13 <0> d   1       6.752  -1.327  -0.976  0.00  0.00     0.218 A 
ATOM      4  O2  <0> d   1       7.302  -0.259  -1.190  0.00  0.00    -0.284 OA
ATOM      5  C14 <0> d   1       7.382  -2.654  -0.873  0.00  0.00     0.051 A 
ATOM      6  C15 <0> d   1       8.699  -3.103  -0.976  0.00  0.00     0.021 A 
ATOM      7  C16 <0> d   1       8.978  -4.432  -0.829  0.00  0.00     0.038 A 
ATOM      8  C17 <0> d   1       7.953  -5.340  -0.578  0.00  0.00     0.076 A 
ATOM      9  C18 <0> d   1       6.641  -4.909  -0.473  0.00  0.00     0.036 A 
ATOM     10  C19 <0> d   1       6.341  -3.562  -0.619  0.00  0.00     0.101 A 
ATOM     11  O3  <0> d   1       5.176  -2.881  -0.561  0.00  0.00    -0.305 OA
ENDROOT
BRANCH   1  12
ATOM     12  C3  <0> d   1       2.997  -0.983  -0.554  0.00  0.00    -0.005 A 
ATOM     13  C2  <0> d   1       2.513  -2.253  -0.321  0.00  0.00     0.103 A 
ATOM     14  N1  <0> d   1       1.168  -2.201  -0.160  0.00  0.00    -0.360 N 
ATOM     15  C1  <0> d   1       0.314  -3.361   0.104  0.00  0.00     0.156 C 
ATOM     16  C5  <0> d   1       0.715  -0.901  -0.280  0.00  0.00     0.045 A 
ATOM     17  C4  <0> d   1       1.828  -0.083  -0.530  0.00  0.00     0.005 A 
ATOM     18  C6  <0> d   1      -0.550  -0.328  -0.201  0.00  0.00     0.033 A 
ATOM     19  C9  <0> d   1       1.665   1.289  -0.697  0.00  0.00     0.051 A 
ATOM     20  C8  <0> d   1       0.400   1.842  -0.615  0.00  0.00     0.069 A 
ATOM     21  C7  <0> d   1      -0.703   1.031  -0.367  0.00  0.00     0.039 A 
BRANCH  20  22
ATOM     22  O1  <0> d   1       0.234   3.182  -0.777  0.00  0.00    -0.356 OA
ATOM     23  C10 <0> d   1      -1.100   3.687  -0.680  0.00  0.00     0.210 C 
ENDBRANCH  20  22
ENDBRANCH   1  12
BRANCH   9  24
ATOM     24  C20 <0> d   1       5.540  -5.902  -0.201  0.00  0.00     0.279 C 
BRANCH  24  25
ATOM     25  N2  <0> d   1       4.887  -6.268  -1.465  0.00  0.00    -0.063 N 
ATOM     26  H30 <0> d   1       4.712  -5.344  -2.035  0.00  0.00     0.280 HD
BRANCH  25  27
ATOM     27  C21 <0> d   1       5.753  -7.139  -2.271  0.00  0.00     0.261 C 
BRANCH  27  28
ATOM     28  C22 <0> d   1       5.983  -8.457  -1.530  0.00  0.00     0.194 C 
BRANCH  28  29
ATOM     29  O4  <0> d   1       4.787  -9.238  -1.565  0.00  0.00    -0.394 OA
ATOM     30  C23 <0> d   1       4.859 -10.446  -0.805  0.00  0.00     0.201 C 
ENDBRANCH  28  29
ENDBRANCH  27  28
ENDBRANCH  25  27
BRANCH  25  31
ATOM     31  C24 <0> d   1       3.585  -6.902  -1.220  0.00  0.00     0.261 C 
BRANCH  31  32
ATOM     32  C25 <0> d   1       2.787  -6.947  -2.525  0.00  0.00     0.194 C 
BRANCH  32  33
ATOM     33  O5  <0> d   1       3.419  -7.844  -3.440  0.00  0.00    -0.394 OA
ATOM     34  C26 <0> d   1       2.814  -7.876  -4.734  0.00  0.00     0.201 C 
ENDBRANCH  32  33
ENDBRANCH  31  32
ENDBRANCH  25  31
ENDBRANCH  24  25
ENDBRANCH   9  24
BRANCH   8  35
ATOM     35  O6  <0> d   1       8.242  -6.659  -0.434  0.00  0.00    -0.360 OA
ATOM     36  H31 <0> d   1       7.436  -7.380  -0.235  0.00  0.00     0.217 HD
ENDBRANCH   8  35
TORSDOF 11
