REMARK  8 active torsions:
REMARK  status: ('A' for Active; 'I' for Inactive)
REMARK    1  A    between atoms: C2_2  and  N1_3 
REMARK    2  A    between atoms: N2_6  and  C7_9 
REMARK    3  A    between atoms: C7_9  and  C8_10 
REMARK    4  A    between atoms: C9_11  and  O6_34 
REMARK    5  A    between atoms: C15_18  and  C16_19 
REMARK    6  A    between atoms: C18_21  and  O4_29 
REMARK    7  A    between atoms: C19_22  and  O3_27 
REMARK    8  A    between atoms: C20_23  and  O2_25 
ROOT
ATOM      1  C8  <0> d   1       1.481   2.816  -1.283  0.00  0.00     0.038 A 
ATOM      2  C9  <0> d   1       0.803   2.648  -0.086  0.00  0.00     0.077 A 
ATOM      3  C10 <0> d   1       1.472   2.763   1.129  0.00  0.00     0.045 A 
ATOM      4  C11 <0> d   1       2.812   3.032   1.152  0.00  0.00    -0.042 A 
ATOM      5  C12 <0> d   1       3.507   3.204  -0.045  0.00  0.00     0.057 A 
ATOM      6  C13 <0> d   1       2.841   3.097  -1.277  0.00  0.00     0.102 A 
ATOM      7  O1  <0> d   1       3.716   3.301  -2.286  0.00  0.00    -0.305 OA
ATOM      8  C14 <0> d   1       4.965   3.547  -1.827  0.00  0.00     0.128 A 
ATOM      9  C15 <0> d   1       6.065   3.791  -2.586  0.00  0.00     0.053 C 
ATOM     10  C25 <0> d   1       4.916   3.502  -0.359  0.00  0.00     0.219 A 
ATOM     11  O5  <0> d   1       5.835   3.672   0.424  0.00  0.00    -0.284 OA
ATOM     12  C26 <0> d   1       3.535   3.150   2.469  0.00  0.00     0.049 C 
ENDROOT
BRANCH   9  13
ATOM     13  C16 <0> d   1       5.995   3.651  -4.045  0.00  0.00    -0.028 A 
ATOM     14  C21 <0> d   1       7.080   4.042  -4.841  0.00  0.00     0.051 A 
ATOM     15  C20 <0> d   1       7.010   3.908  -6.214  0.00  0.00     0.105 A 
ATOM     16  C19 <0> d   1       5.864   3.385  -6.808  0.00  0.00     0.135 A 
ATOM     17  C18 <0> d   1       4.783   2.994  -6.020  0.00  0.00     0.105 A 
ATOM     18  C17 <0> d   1       4.847   3.119  -4.646  0.00  0.00     0.051 A 
BRANCH  15  19
ATOM     19  O2  <0> d   1       8.063   4.287  -6.987  0.00  0.00    -0.353 OA
ATOM     20  C22 <0> d   1       9.206   4.816  -6.312  0.00  0.00     0.210 C 
ENDBRANCH  15  19
BRANCH  16  21
ATOM     21  O3  <0> d   1       5.800   3.254  -8.159  0.00  0.00    -0.351 OA
ATOM     22  C23 <0> d   1       6.258   2.020  -8.714  0.00  0.00     0.210 C 
ENDBRANCH  16  21
BRANCH  17  23
ATOM     23  O4  <0> d   1       3.666   2.484  -6.604  0.00  0.00    -0.353 OA
ATOM     24  C24 <0> d   1       2.596   2.105  -5.737  0.00  0.00     0.210 C 
ENDBRANCH  17  23
ENDBRANCH   9  13
BRANCH   1  25
ATOM     25  C7  <0> d   1       0.742   2.696  -2.591  0.00  0.00     0.317 C 
BRANCH  25  26
ATOM     26  N2  <0> d   1       0.223   4.013  -2.983  0.00  0.00     0.096 N 
ATOM     27  C4  <0> d   1      -0.295   3.987  -4.358  0.00  0.00     0.300 C 
ATOM     28  C3  <0> d   1      -0.752   5.392  -4.755  0.00  0.00     0.265 C 
ATOM     29  N1  <0> d   1      -1.784   5.853  -3.815  0.00  0.00    -0.068 N 
ATOM     30  C6  <0> d   1      -1.266   5.879  -2.440  0.00  0.00     0.265 C 
ATOM     31  H32 <0> d   1      -2.619   5.138  -3.850  0.00  0.00     0.280 HD
ATOM     32  C5  <0> d   1      -0.809   4.473  -2.043  0.00  0.00     0.300 C 
BRANCH  29  33
ATOM     33  C2  <0> d   1      -2.303   7.170  -4.207  0.00  0.00     0.230 C 
ATOM     34  C1  <0> d   1      -3.535   7.504  -3.364  0.00  0.00     0.034 C 
ENDBRANCH  29  33
ENDBRANCH  25  26
ENDBRANCH   1  25
BRANCH   2  35
ATOM     35  O6  <0> d   1      -0.526   2.374  -0.098  0.00  0.00    -0.360 OA
ATOM     36  H33 <0> d   1      -1.069   2.240   0.849  0.00  0.00     0.217 HD
ENDBRANCH   2  35
TORSDOF 8
