REMARK  5 active torsions:
REMARK  status: ('A' for Active; 'I' for Inactive)
REMARK    1  A    between atoms: C3_3  and  O4_22 
REMARK    2  A    between atoms: C9_10  and  C11_13 
REMARK    3  A    between atoms: C11_13  and  N1_14 
REMARK    4  A    between atoms: O4_22  and  C18_23 
REMARK    5  A    between atoms: C21_26  and  O5_29 
ROOT
ATOM      1  C1  <0> d   1      -1.187   3.320  -2.429  0.00  0.00     0.080 C 
ATOM      2  C2  <0> d   1      -1.165   4.092  -1.135  0.00  0.00     0.087 A 
ATOM      3  C3  <0> d   1      -1.174   3.408   0.026  0.00  0.00     0.156 A 
ATOM      4  C4  <0> d   1      -1.159   4.118   1.260  0.00  0.00     0.221 A 
ATOM      5  O1  <0> d   1      -1.171   3.532   2.330  0.00  0.00    -0.284 OA
ATOM      6  C5  <0> d   1      -1.123   5.589   1.191  0.00  0.00     0.052 A 
ATOM      7  C6  <0> d   1      -1.102   6.371   2.347  0.00  0.00     0.021 A 
ATOM      8  C7  <0> d   1      -1.074   7.732   2.242  0.00  0.00     0.041 A 
ATOM      9  C8  <0> d   1      -1.067   8.343   0.990  0.00  0.00     0.118 A 
ATOM     10  C9  <0> d   1      -1.088   7.581  -0.166  0.00  0.00     0.039 A 
ATOM     11  C10 <0> d   1      -1.116   6.196  -0.077  0.00  0.00     0.101 A 
ATOM     12  O2  <0> d   1      -1.137   5.431  -1.187  0.00  0.00    -0.311 OA
ATOM     13  O3  <0> d   1      -1.039   9.698   0.902  0.00  0.00    -0.191 OA
ENDROOT
BRANCH   3  14
ATOM     14  O4  <0> d   1      -1.203   2.047   0.019  0.00  0.00    -0.304 OA
BRANCH  14  15
ATOM     15  C18 <0> d   1      -0.017   1.383   0.010  0.00  0.00     0.076 A 
ATOM     16  C23 <0> d   1       0.002  -0.004   0.002  0.00  0.00     0.040 A 
ATOM     17  C22 <0> d   1       1.208  -0.678  -0.013  0.00  0.00     0.039 A 
ATOM     18  C21 <0> d   1       2.399   0.032  -0.021  0.00  0.00     0.068 A 
ATOM     19  C20 <0> d   1       2.381   1.419  -0.013  0.00  0.00     0.039 A 
ATOM     20  C19 <0> d   1       1.175   2.093   0.002  0.00  0.00     0.040 A 
BRANCH  18  21
ATOM     21  O5  <0> d   1       3.586  -0.632  -0.035  0.00  0.00    -0.356 OA
ATOM     22  C24 <0> d   1       4.774   0.162  -0.042  0.00  0.00     0.210 C 
ENDBRANCH  18  21
ENDBRANCH  14  15
ENDBRANCH   3  14
BRANCH  10  23
ATOM     23  C11 <0> d   1      -1.079   8.253  -1.515  0.00  0.00     0.279 C 
BRANCH  23  24
ATOM     24  N1  <0> d   1      -2.461   8.500  -1.948  0.00  0.00    -0.067 N 
ATOM     25  C17 <0> d   1      -2.495   9.366  -3.147  0.00  0.00     0.235 C 
ATOM     26  C16 <0> d   1      -2.330   8.595  -4.428  0.00  0.00     0.028 C 
ATOM     27  C15 <0> d   1      -3.731   8.254  -4.978  0.00  0.00     0.002 C 
ATOM     28  C14 <0> d   1      -4.335   7.123  -4.282  0.00  0.00     0.002 C 
ATOM     29  C13 <0> d   1      -4.533   7.403  -2.778  0.00  0.00     0.028 C 
ATOM     30  C12 <0> d   1      -3.210   7.230  -2.083  0.00  0.00     0.235 C 
ATOM     31  H27 <0> d   1      -2.984   9.066  -1.162  0.00  0.00     0.280 HD
ENDBRANCH  23  24
ENDBRANCH  10  23
TORSDOF 5
