REMARK  7 active torsions:
REMARK  status: ('A' for Active; 'I' for Inactive)
REMARK    1  A    between atoms: C4_4  and  N1_7 
REMARK    2  A    between atoms: N2_10  and  C11_13 
REMARK    3  A    between atoms: C11_13  and  C12_14 
REMARK    4  A    between atoms: C12_14  and  O1_15 
REMARK    5  A    between atoms: O1_15  and  C13_16 
REMARK    6  A    between atoms: C16_19  and  C19_23 
REMARK    7  A    between atoms: C20_24  and  C22_29 
ROOT
ATOM      1  C13 <0> d   1       6.197  -5.888  -1.733  0.00  0.00     0.071 A 
ATOM      2  C14 <0> d   1       7.352  -6.624  -1.501  0.00  0.00     0.038 A 
ATOM      3  C15 <0> d   1       7.316  -8.002  -1.546  0.00  0.00     0.019 A 
ATOM      4  C16 <0> d   1       6.119  -8.659  -1.824  0.00  0.00     0.032 A 
ATOM      5  C17 <0> d   1       4.957  -7.916  -2.058  0.00  0.00     0.122 A 
ATOM      6  C18 <0> d   1       5.000  -6.534  -2.005  0.00  0.00     0.077 A 
ATOM      7  O2  <0> d   1       3.787  -8.551  -2.330  0.00  0.00    -0.191 OA
ENDROOT
BRANCH   1   8
ATOM      8  O1  <0> d   1       6.239  -4.530  -1.687  0.00  0.00    -0.349 OA
BRANCH   8   9
ATOM      9  C12 <0> d   1       7.504  -3.929  -1.402  0.00  0.00     0.203 C 
BRANCH   9  10
ATOM     10  C11 <0> d   1       7.354  -2.406  -1.392  0.00  0.00     0.261 C 
BRANCH  10  11
ATOM     11  N2  <0> d   1       6.465  -2.009  -0.293  0.00  0.00    -0.066 N 
ATOM     12  C8  <0> d   1       7.111  -2.310   0.991  0.00  0.00     0.254 C 
ATOM     13  C7  <0> d   1       6.139  -2.002   2.135  0.00  0.00     0.150 C 
ATOM     14  N1  <0> d   1       5.682  -0.610   1.997  0.00  0.00    -0.378 N 
ATOM     15  C10 <0> d   1       5.164  -0.177   0.690  0.00  0.00     0.150 C 
ATOM     16  C9  <0> d   1       6.186  -0.570  -0.388  0.00  0.00     0.254 C 
ATOM     17  H27 <0> d   1       5.599  -2.523  -0.362  0.00  0.00     0.280 HD
BRANCH  14  18
ATOM     18  C4  <0> d   1       5.733   0.273   3.077  0.00  0.00     0.030 A 
ATOM     19  C3  <0> d   1       5.401   1.610   2.900  0.00  0.00     0.029 A 
ATOM     20  C2  <0> d   1       5.453   2.481   3.971  0.00  0.00     0.002 A 
ATOM     21  C1  <0> d   1       5.834   2.023   5.219  0.00  0.00     0.000 A 
ATOM     22  C6  <0> d   1       6.164   0.692   5.399  0.00  0.00     0.002 A 
ATOM     23  C5  <0> d   1       6.115  -0.184   4.332  0.00  0.00     0.029 A 
ENDBRANCH  14  18
ENDBRANCH  10  11
ENDBRANCH   9  10
ENDBRANCH   8   9
ENDBRANCH   1   8
BRANCH   4  24
ATOM     24  C19 <0> d   1       6.078 -10.140  -1.874  0.00  0.00     0.102 A 
ATOM     25  C20 <0> d   1       6.984 -10.978  -2.571  0.00  0.00     0.022 A 
ATOM     26  C21 <0> d   1       6.596 -12.267  -2.359  0.00  0.00     0.124 A 
ATOM     27  N3  <0> d   1       5.502 -12.244  -1.570  0.00  0.00    -0.288 N 
ATOM     28  H1  <0> d   1       5.011 -13.021  -1.258  0.00  0.00     0.188 HD
ATOM     29  N4  <0> d   1       5.197 -10.911  -1.274  0.00  0.00    -0.174 NA
BRANCH  25  30
ATOM     30  C22 <0> d   1       8.143 -10.533  -3.383  0.00  0.00    -0.022 A 
ATOM     31  C27 <0> d   1       9.407 -11.074  -3.153  0.00  0.00     0.014 A 
ATOM     32  C26 <0> d   1      10.481 -10.661  -3.915  0.00  0.00     0.024 A 
ATOM     33  C25 <0> d   1      10.307  -9.702  -4.898  0.00  0.00     0.034 A 
ATOM     34  C24 <0> d   1       9.055  -9.158  -5.126  0.00  0.00     0.024 A 
ATOM     35 Cl1  <0> d   1      11.664  -9.182  -5.848  0.00  0.00    -0.084 Cl
ATOM     36  C23 <0> d   1       7.974  -9.568  -4.374  0.00  0.00     0.014 A 
ENDBRANCH  25  30
ENDBRANCH   4  24
TORSDOF 7
