REMARK  6 active torsions:
REMARK  status: ('A' for Active; 'I' for Inactive)
REMARK    1  A    between atoms: C5_5  and  C17_20 
REMARK    2  A    between atoms: C10_11  and  C11_12 
REMARK    3  A    between atoms: C17_20  and  N1_21 
REMARK    4  A    between atoms: N2_24  and  C22_27 
REMARK    5  A    between atoms: C22_27  and  C23_28 
REMARK    6  A    between atoms: C23_28  and  O3_29 
ROOT
ATOM      1  C1  <0> d   1       0.738  -0.541  -1.990  0.00  0.00     0.049 C 
ATOM      2  C2  <0> d   1       0.621   0.958  -1.898  0.00  0.00    -0.042 A 
ATOM      3  C3  <0> d   1       1.587   1.755  -2.444  0.00  0.00     0.048 A 
ATOM      4  C4  <0> d   1       1.481   3.141  -2.360  0.00  0.00     0.118 A 
ATOM      5  C5  <0> d   1       0.399   3.727  -1.723  0.00  0.00     0.041 A 
ATOM      6  C6  <0> d   1      -0.592   2.932  -1.162  0.00  0.00     0.102 A 
ATOM      7  C7  <0> d   1      -0.474   1.535  -1.253  0.00  0.00     0.057 A 
ATOM      8  C8  <0> d   1      -1.657   0.973  -0.577  0.00  0.00     0.219 A 
ATOM      9  O1  <0> d   1      -1.944  -0.202  -0.430  0.00  0.00    -0.284 OA
ATOM     10  C9  <0> d   1      -2.417   2.149  -0.125  0.00  0.00     0.128 A 
ATOM     11  C10 <0> d   1      -3.595   2.132   0.548  0.00  0.00     0.056 C 
ATOM     12  O2  <0> d   1      -1.726   3.251  -0.500  0.00  0.00    -0.305 OA
ATOM     13  O4  <0> d   1       2.446   3.924  -2.906  0.00  0.00    -0.191 OA
ENDROOT
BRANCH   5  14
ATOM     14  C17 <0> d   1       0.297   5.229  -1.639  0.00  0.00     0.317 C 
BRANCH  14  15
ATOM     15  N1  <0> d   1       0.959   5.696  -0.414  0.00  0.00     0.096 N 
ATOM     16  C21 <0> d   1       1.090   7.160  -0.412  0.00  0.00     0.303 C 
ATOM     17  C20 <0> d   1       1.853   7.600   0.840  0.00  0.00     0.302 C 
ATOM     18  N2  <0> d   1       1.135   7.136   2.036  0.00  0.00     0.093 N 
ATOM     19  C19 <0> d   1       1.004   5.673   2.034  0.00  0.00     0.302 C 
ATOM     20  C18 <0> d   1       0.241   5.233   0.782  0.00  0.00     0.303 C 
BRANCH  18  21
ATOM     21  C22 <0> d   1       1.797   7.604   3.261  0.00  0.00     0.298 C 
BRANCH  21  22
ATOM     22  C23 <0> d   1       1.513   9.095   3.457  0.00  0.00     0.194 C 
BRANCH  22  23
ATOM     23  O3  <0> d   1       0.109   9.293   3.636  0.00  0.00    -0.399 OA
ATOM     24  H24 <0> d   1      -0.288  10.307   3.792  0.00  0.00     0.209 HD
ENDBRANCH  22  23
ENDBRANCH  21  22
ENDBRANCH  18  21
ENDBRANCH  14  15
ENDBRANCH   5  14
BRANCH  11  25
ATOM     25  C11 <0> d   1      -4.299   3.390   0.827  0.00  0.00     0.005 A 
ATOM     26  C16 <0> d   1      -5.657   3.376   1.176  0.00  0.00     0.126 A 
ATOM     27  C15 <0> d   1      -6.310   4.565   1.440  0.00  0.00     0.043 A 
ATOM     28  F1  <0> d   1      -6.324   2.204   1.258  0.00  0.00    -0.205 F 
ATOM     29  C14 <0> d   1      -5.629   5.766   1.352  0.00  0.00     0.003 A 
ATOM     30  C13 <0> d   1      -4.289   5.788   1.003  0.00  0.00     0.001 A 
ATOM     31  C12 <0> d   1      -3.620   4.612   0.741  0.00  0.00     0.014 A 
ENDBRANCH  11  25
TORSDOF 6
