REMARK  5 active torsions:
REMARK  status: ('A' for Active; 'I' for Inactive)
REMARK    1  A    between atoms: C6_6  and  C11_13 
REMARK    2  A    between atoms: C11_13  and  N1_14 
REMARK    3  A    between atoms: N2_17  and  C16_20 
REMARK    4  A    between atoms: C16_20  and  C17_21 
REMARK    5  A    between atoms: C16_20  and  C23_27 
ROOT
ATOM      1  N1  <0> d   1      -2.106  -1.861   3.127  0.00  0.00     0.096 N 
ATOM      2  C12 <0> d   1      -2.263  -2.420   1.777  0.00  0.00     0.300 C 
ATOM      3  C13 <0> d   1      -1.175  -1.851   0.863  0.00  0.00     0.266 C 
ATOM      4  N2  <0> d   1      -1.277  -0.385   0.839  0.00  0.00    -0.055 N 
ATOM      5  C14 <0> d   1      -1.120   0.173   2.189  0.00  0.00     0.266 C 
ATOM      6  C15 <0> d   1      -2.208  -0.396   3.103  0.00  0.00     0.300 C 
ATOM      7  H29 <0> d   1      -2.281  -0.119   0.476  0.00  0.00     0.281 HD
ENDROOT
BRANCH   4   8
ATOM      8  C16 <0> d   1      -0.296   0.196  -0.088  0.00  0.00     0.254 C 
BRANCH   8   9
ATOM      9  C17 <0> d   1      -0.430   1.697  -0.086  0.00  0.00    -0.023 A 
ATOM     10  C22 <0> d   1       0.701   2.491  -0.128  0.00  0.00     0.009 A 
ATOM     11  C21 <0> d   1       0.578   3.868  -0.126  0.00  0.00     0.001 A 
ATOM     12  C20 <0> d   1      -0.675   4.450  -0.083  0.00  0.00     0.000 A 
ATOM     13  C19 <0> d   1      -1.806   3.656  -0.041  0.00  0.00     0.001 A 
ATOM     14  C18 <0> d   1      -1.683   2.279  -0.048  0.00  0.00     0.009 A 
ENDBRANCH   8   9
BRANCH   8  15
ATOM     15  C23 <0> d   1      -0.547  -0.329  -1.479  0.00  0.00    -0.023 A 
ATOM     16  C28 <0> d   1       0.518  -0.661  -2.295  0.00  0.00     0.009 A 
ATOM     17  C27 <0> d   1       0.288  -1.143  -3.570  0.00  0.00     0.001 A 
ATOM     18  C26 <0> d   1      -1.008  -1.292  -4.029  0.00  0.00     0.000 A 
ATOM     19  C25 <0> d   1      -2.073  -0.961  -3.212  0.00  0.00     0.001 A 
ATOM     20  C24 <0> d   1      -1.843  -0.484  -1.935  0.00  0.00     0.009 A 
ENDBRANCH   8  15
ENDBRANCH   4   8
BRANCH   1  21
ATOM     21  C11 <0> d   1      -3.087  -2.442   4.054  0.00  0.00     0.312 C 
BRANCH  21  22
ATOM     22  C6  <0> d   1      -2.962  -1.775   5.400  0.00  0.00    -0.011 A 
ATOM     23  C5  <0> d   1      -1.839  -2.082   6.290  0.00  0.00     0.006 A 
ATOM     24  C4  <0> d   1      -0.846  -2.992   5.912  0.00  0.00     0.015 A 
ATOM     25  C9  <0> d   1      -1.758  -1.433   7.535  0.00  0.00     0.090 A 
ATOM     26  C3  <0> d   1       0.193  -3.253   6.761  0.00  0.00     0.007 A 
ATOM     27  C2  <0> d   1       0.273  -2.617   7.992  0.00  0.00    -0.059 A 
ATOM     28  C1  <0> d   1       1.427  -2.919   8.913  0.00  0.00     0.048 C 
ATOM     29  C10 <0> d   1      -0.693  -1.713   8.381  0.00  0.00     0.045 A 
ATOM     30  O2  <0> d   1      -2.714  -0.550   7.896  0.00  0.00    -0.275 OA
ATOM     31  C8  <0> d   1      -3.748  -0.269   7.088  0.00  0.00     0.288 A 
ATOM     32  C7  <0> d   1      -3.889  -0.879   5.823  0.00  0.00     0.092 A 
ATOM     33  O1  <0> d   1      -4.587   0.534   7.456  0.00  0.00    -0.260 OA
ENDBRANCH  21  22
ENDBRANCH   1  21
TORSDOF 5
