REMARK  6 active torsions:
REMARK  status: ('A' for Active; 'I' for Inactive)
REMARK    1  A    between atoms: O1_2  and  C2_3 
REMARK    2  A    between atoms: C2_3  and  C3_5 
REMARK    3  A    between atoms: C6_8  and  C9_11 
REMARK    4  A    between atoms: C15_18  and  O6_37 
REMARK    5  A    between atoms: C16_19  and  C18_22 
REMARK    6  A    between atoms: C18_22  and  N1_23 
ROOT
ATOM      1  C9  <0> d   1       4.522   4.668  -4.170  0.00  0.00     0.053 C 
ATOM      2  C10 <0> d   1       4.426   4.618  -2.818  0.00  0.00     0.127 A 
ATOM      3  C11 <0> d   1       5.473   5.002  -1.855  0.00  0.00     0.218 A 
ATOM      4  O3  <0> d   1       6.590   5.425  -2.096  0.00  0.00    -0.284 OA
ATOM      5  C12 <0> d   1       4.866   4.759  -0.534  0.00  0.00     0.051 A 
ATOM      6  C13 <0> d   1       5.328   4.919   0.773  0.00  0.00     0.021 A 
ATOM      7  C14 <0> d   1       4.517   4.603   1.826  0.00  0.00     0.038 A 
ATOM      8  C15 <0> d   1       3.229   4.125   1.597  0.00  0.00     0.076 A 
ATOM      9  C16 <0> d   1       2.759   3.956   0.305  0.00  0.00     0.036 A 
ATOM     10  C17 <0> d   1       3.571   4.274  -0.777  0.00  0.00     0.101 A 
ATOM     11  O4  <0> d   1       3.350   4.205  -2.108  0.00  0.00    -0.305 OA
ENDROOT
BRANCH   9  12
ATOM     12  C18 <0> d   1       1.364   3.434   0.073  0.00  0.00     0.279 C 
BRANCH  12  13
ATOM     13  N1  <0> d   1       1.399   1.968  -0.017  0.00  0.00    -0.066 N 
ATOM     14  C23 <0> d   1       2.144   1.531  -1.208  0.00  0.00     0.245 C 
ATOM     15  C22 <0> d   1       2.287   0.001  -1.143  0.00  0.00     0.062 C 
ATOM     16  C21 <0> d   1       0.885  -0.611  -1.240  0.00  0.00     0.020 C 
ATOM     17  C24 <0> d   1       2.888  -0.344   0.201  0.00  0.00     0.020 C 
ATOM     18  C20 <0> d   1       0.079  -0.112  -0.038  0.00  0.00     0.031 C 
ATOM     19  C19 <0> d   1       0.044   1.409  -0.006  0.00  0.00     0.241 C 
ATOM     20  C29 <0> d   1       0.665  -0.691   1.239  0.00  0.00     0.138 C 
ATOM     21  N2  <0> d   1       2.121  -0.556   1.295  0.00  0.00    -0.317 N 
ATOM     22  C28 <0> d   1       2.705  -0.710   2.509  0.00  0.00     0.247 C 
ATOM     23  C27 <0> d   1       4.099  -0.813   2.623  0.00  0.00     0.074 C 
ATOM     24  O5  <0> d   1       2.011  -0.760   3.512  0.00  0.00    -0.268 OA
ATOM     25  C26 <0> d   1       4.868  -0.686   1.504  0.00  0.00     0.007 C 
ATOM     26  C25 <0> d   1       4.242  -0.435   0.278  0.00  0.00     0.026 C 
ATOM     27  H26 <0> d   1       1.925   1.586   0.870  0.00  0.00     0.280 HD
ENDBRANCH  12  13
ENDBRANCH   9  12
BRANCH   8  28
ATOM     28  O6  <0> d   1       2.429   3.818   2.650  0.00  0.00    -0.360 OA
ATOM     29  H27 <0> d   1       1.411   3.441   2.475  0.00  0.00     0.217 HD
ENDBRANCH   8  28
BRANCH   1  30
ATOM     30  C6  <0> d   1       3.431   4.146  -5.004  0.00  0.00    -0.033 A 
ATOM     31  C5  <0> d   1       2.239   3.715  -4.410  0.00  0.00     0.012 A 
ATOM     32  C4  <0> d   1       1.222   3.228  -5.190  0.00  0.00     0.018 A 
ATOM     33  C3  <0> d   1       1.374   3.162  -6.578  0.00  0.00     0.039 A 
ATOM     34  C8  <0> d   1       2.564   3.592  -7.172  0.00  0.00     0.018 A 
ATOM     35  C7  <0> d   1       3.581   4.084  -6.395  0.00  0.00     0.012 A 
BRANCH  33  36
ATOM     36  C2  <0> d   1       0.278   2.637  -7.417  0.00  0.00     0.292 C 
ATOM     37  O2  <0> d   1      -0.756   2.263  -6.900  0.00  0.00    -0.259 OA
BRANCH  36  38
ATOM     38  O1  <0> d   1       0.424   2.573  -8.754  0.00  0.00    -0.323 OA
ATOM     39  C1  <0> d   1      -0.694   2.047  -9.516  0.00  0.00     0.213 C 
ENDBRANCH  36  38
ENDBRANCH  33  36
ENDBRANCH   1  30
TORSDOF 6
