REMARK  6 active torsions:
REMARK  status: ('A' for Active; 'I' for Inactive)
REMARK    1  A    between atoms: C4_4  and  O5_31 
REMARK    2  A    between atoms: C5_5  and  C19_23 
REMARK    3  A    between atoms: C10_11  and  C11_12 
REMARK    4  A    between atoms: C14_15  and  O3_20 
REMARK    5  A    between atoms: C15_16  and  O2_18 
REMARK    6  A    between atoms: C19_23  and  N1_24 
ROOT
ATOM      1  C1  <0> d   1       2.486   1.039  -0.080  0.00  0.00     0.049 C 
ATOM      2  C2  <0> d   1       1.169   1.773  -0.073  0.00  0.00    -0.042 A 
ATOM      3  C3  <0> d   1      -0.004   1.074  -0.090  0.00  0.00     0.045 A 
ATOM      4  C4  <0> d   1      -1.221   1.750  -0.088  0.00  0.00     0.076 A 
ATOM      5  C5  <0> d   1      -1.258   3.135  -0.058  0.00  0.00     0.036 A 
ATOM      6  C6  <0> d   1      -0.073   3.861  -0.040  0.00  0.00     0.101 A 
ATOM      7  C7  <0> d   1       1.148   3.168  -0.048  0.00  0.00     0.057 A 
ATOM      8  C8  <0> d   1       2.207   4.192  -0.026  0.00  0.00     0.219 A 
ATOM      9  O1  <0> d   1       3.414   4.018  -0.025  0.00  0.00    -0.284 OA
ATOM     10  C9  <0> d   1       1.483   5.471  -0.006  0.00  0.00     0.128 A 
ATOM     11  C10 <0> d   1       2.041   6.709   0.018  0.00  0.00     0.053 C 
ATOM     12  O4  <0> d   1       0.158   5.191  -0.016  0.00  0.00    -0.305 OA
ENDROOT
BRANCH  11  13
ATOM     13  C11 <0> d   1       1.189   7.900  -0.078  0.00  0.00    -0.031 A 
ATOM     14  C16 <0> d   1       1.768   9.171  -0.182  0.00  0.00     0.051 A 
ATOM     15  C15 <0> d   1       0.961  10.288  -0.272  0.00  0.00     0.102 A 
ATOM     16  C14 <0> d   1      -0.427  10.149  -0.260  0.00  0.00     0.101 A 
ATOM     17  C13 <0> d   1      -1.002   8.889  -0.157  0.00  0.00     0.040 A 
ATOM     18  C12 <0> d   1      -0.205   7.769  -0.072  0.00  0.00     0.014 A 
BRANCH  15  19
ATOM     19  O2  <0> d   1       1.519  11.524  -0.373  0.00  0.00    -0.353 OA
ATOM     20  C17 <0> d   1       2.946  11.592  -0.381  0.00  0.00     0.210 C 
ENDBRANCH  15  19
BRANCH  16  21
ATOM     21  O3  <0> d   1      -1.218  11.249  -0.350  0.00  0.00    -0.353 OA
ATOM     22  C18 <0> d   1      -2.631  11.036  -0.331  0.00  0.00     0.210 C 
ENDBRANCH  16  21
ENDBRANCH  11  13
BRANCH   5  23
ATOM     23  C19 <0> d   1      -2.582   3.854  -0.050  0.00  0.00     0.279 C 
BRANCH  23  24
ATOM     24  N1  <0> d   1      -3.008   4.112  -1.432  0.00  0.00    -0.064 N 
ATOM     25  C23 <0> d   1      -4.395   4.594  -1.475  0.00  0.00     0.265 C 
ATOM     26  C22 <0> d   1      -4.825   4.774  -2.933  0.00  0.00     0.299 C 
ATOM     27  N2  <0> d   1      -3.919   5.724  -3.594  0.00  0.00     0.087 N 
ATOM     28  C21 <0> d   1      -2.532   5.242  -3.551  0.00  0.00     0.299 C 
ATOM     29  C24 <0> d   1      -4.344   5.982  -4.976  0.00  0.00     0.310 C 
ATOM     30  C20 <0> d   1      -2.102   5.061  -2.093  0.00  0.00     0.265 C 
ATOM     31  H29 <0> d   1      -2.962   3.160  -1.982  0.00  0.00     0.280 HD
ENDBRANCH  23  24
ENDBRANCH   5  23
BRANCH   4  32
ATOM     32  O5  <0> d   1      -2.382   1.047  -0.111  0.00  0.00    -0.360 OA
ATOM     33  H28 <0> d   1      -3.346   1.576  -0.110  0.00  0.00     0.217 HD
ENDBRANCH   4  32
TORSDOF 6
