REMARK  8 active torsions:
REMARK  status: ('A' for Active; 'I' for Inactive)
REMARK    1  A    between atoms: C4_4  and  O6_38 
REMARK    2  A    between atoms: C5_5  and  C19_23 
REMARK    3  A    between atoms: C10_11  and  C11_12 
REMARK    4  A    between atoms: C15_16  and  O3_20 
REMARK    5  A    between atoms: C16_17  and  O2_18 
REMARK    6  A    between atoms: C19_23  and  N1_24 
REMARK    7  A    between atoms: N2_27  and  C24_30 
REMARK    8  A    between atoms: C27_33  and  O5_36 
ROOT
ATOM      1  C1  <0> d   1       0.836   0.057  -1.953  0.00  0.00     0.049 C 
ATOM      2  C2  <0> d   1       1.370  -1.335  -1.727  0.00  0.00    -0.042 A 
ATOM      3  C3  <0> d   1       2.011  -1.994  -2.737  0.00  0.00     0.045 A 
ATOM      4  C4  <0> d   1       2.505  -3.279  -2.531  0.00  0.00     0.077 A 
ATOM      5  C5  <0> d   1       2.353  -3.904  -1.303  0.00  0.00     0.038 A 
ATOM      6  C6  <0> d   1       1.704  -3.247  -0.265  0.00  0.00     0.102 A 
ATOM      7  C7  <0> d   1       1.215  -1.949  -0.484  0.00  0.00     0.057 A 
ATOM      8  C8  <0> d   1       0.594  -1.520   0.782  0.00  0.00     0.219 A 
ATOM      9  O1  <0> d   1       0.046  -0.458   1.022  0.00  0.00    -0.284 OA
ATOM     10  C9  <0> d   1       0.784  -2.660   1.691  0.00  0.00     0.128 A 
ATOM     11  C10 <0> d   1       0.374  -2.732   2.983  0.00  0.00     0.055 C 
ATOM     12  O4  <0> d   1       1.431  -3.629   1.001  0.00  0.00    -0.305 OA
ENDROOT
BRANCH   5  13
ATOM     13  C19 <0> d   1       2.892  -5.295  -1.094  0.00  0.00     0.317 C 
BRANCH  13  14
ATOM     14  N1  <0> d   1       4.276  -5.216  -0.606  0.00  0.00     0.096 N 
ATOM     15  C23 <0> d   1       4.914  -6.540  -0.616  0.00  0.00     0.292 C 
ATOM     16  C22 <0> d   1       6.400  -6.389  -0.276  0.00  0.00     0.153 C 
ATOM     17  N2  <0> d   1       6.517  -5.651   0.991  0.00  0.00    -0.378 N 
ATOM     18  C21 <0> d   1       5.792  -4.379   1.125  0.00  0.00     0.153 C 
ATOM     19  C20 <0> d   1       4.329  -4.609   0.730  0.00  0.00     0.292 C 
BRANCH  17  20
ATOM     20  C24 <0> d   1       7.299  -6.146   2.041  0.00  0.00     0.030 A 
ATOM     21  C29 <0> d   1       7.505  -5.375   3.177  0.00  0.00     0.032 A 
ATOM     22  C28 <0> d   1       8.272  -5.867   4.215  0.00  0.00     0.039 A 
ATOM     23  C27 <0> d   1       8.846  -7.125   4.118  0.00  0.00     0.068 A 
ATOM     24  C26 <0> d   1       8.645  -7.894   2.981  0.00  0.00     0.039 A 
ATOM     25  C25 <0> d   1       7.874  -7.406   1.945  0.00  0.00     0.032 A 
BRANCH  23  26
ATOM     26  O5  <0> d   1       9.606  -7.606   5.138  0.00  0.00    -0.356 OA
ATOM     27  C30 <0> d   1       9.771  -6.761   6.279  0.00  0.00     0.210 C 
ENDBRANCH  23  26
ENDBRANCH  17  20
ENDBRANCH  13  14
ENDBRANCH   5  13
BRANCH   4  28
ATOM     28  O6  <0> d   1       3.140  -3.926  -3.541  0.00  0.00    -0.360 OA
ATOM     29  H32 <0> d   1       4.095  -3.775  -3.566  0.00  0.00     0.217 HD
ENDBRANCH   4  28
BRANCH  11  30
ATOM     30  C11 <0> d   1       0.579  -3.967   3.750  0.00  0.00     0.003 A 
ATOM     31  C16 <0> d   1       0.369  -3.979   5.137  0.00  0.00     0.111 A 
ATOM     32  C15 <0> d   1       0.561  -5.157   5.851  0.00  0.00     0.102 A 
ATOM     33  C14 <0> d   1       0.967  -6.307   5.194  0.00  0.00     0.040 A 
ATOM     34  C13 <0> d   1       1.180  -6.295   3.825  0.00  0.00     0.004 A 
ATOM     35  C12 <0> d   1       0.990  -5.139   3.101  0.00  0.00     0.014 A 
BRANCH  31  36
ATOM     36  O2  <0> d   1      -0.024  -2.849   5.779  0.00  0.00    -0.352 OA
ATOM     37  C17 <0> d   1      -1.430  -2.626   5.898  0.00  0.00     0.210 C 
ENDBRANCH  31  36
BRANCH  32  38
ATOM     38  O3  <0> d   1       0.354  -5.178   7.195  0.00  0.00    -0.353 OA
ATOM     39  C18 <0> d   1       0.576  -6.421   7.866  0.00  0.00     0.210 C 
ENDBRANCH  32  38
ENDBRANCH  11  30
TORSDOF 8
