REMARK  5 active torsions:
REMARK  status: ('A' for Active; 'I' for Inactive)
REMARK    1  A    between atoms: N1_7  and  C7_8 
REMARK    2  A    between atoms: C7_8  and  C8_9 
REMARK    3  A    between atoms: C15_17  and  O3_20 
REMARK    4  A    between atoms: O3_20  and  C17_21 
REMARK    5  A    between atoms: C22_26  and  O4_27 
ROOT
ATOM      1  C8  <0> d   1      -1.277   3.018  -0.167  0.00  0.00     0.039 A 
ATOM      2  C9  <0> d   1      -1.267   1.640  -0.308  0.00  0.00     0.118 A 
ATOM      3  C10 <0> d   1      -0.065   0.952  -0.456  0.00  0.00     0.041 A 
ATOM      4  C11 <0> d   1       1.121   1.629  -0.476  0.00  0.00     0.021 A 
ATOM      5  C12 <0> d   1       1.127   3.018  -0.341  0.00  0.00     0.051 A 
ATOM      6  C13 <0> d   1      -0.081   3.720  -0.185  0.00  0.00     0.100 A 
ATOM      7  O1  <0> d   1      -0.063   5.062  -0.054  0.00  0.00    -0.318 OA
ATOM      8  C14 <0> d   1       1.075   5.769  -0.066  0.00  0.00     0.184 A 
ATOM      9  C15 <0> d   1       2.287   5.198  -0.210  0.00  0.00     0.149 A 
ATOM     10  C16 <0> d   1       2.385   3.785  -0.356  0.00  0.00     0.220 A 
ATOM     11  O2  <0> d   1       3.464   3.233  -0.488  0.00  0.00    -0.284 OA
ATOM     12  O5  <0> d   1      -2.438   0.954  -0.296  0.00  0.00    -0.191 OA
ENDROOT
BRANCH   1  13
ATOM     13  C7  <0> d   1      -2.583   3.752  -0.001  0.00  0.00     0.279 C 
BRANCH  13  14
ATOM     14  N1  <0> d   1      -3.107   4.124  -1.322  0.00  0.00    -0.063 N 
ATOM     15  C2  <0> d   1      -4.517   4.524  -1.236  0.00  0.00     0.184 C 
ATOM     16  C1  <0> d   1      -5.321   3.413  -0.557  0.00  0.00     0.040 C 
ATOM     17  C3  <0> d   1      -5.068   4.764  -2.643  0.00  0.00     0.033 C 
ATOM     18  C4  <0> d   1      -4.248   5.862  -3.326  0.00  0.00     0.004 C 
ATOM     19  C5  <0> d   1      -2.776   5.443  -3.360  0.00  0.00     0.028 C 
ATOM     20  C6  <0> d   1      -2.291   5.183  -1.932  0.00  0.00     0.235 C 
ATOM     21  H25 <0> d   1      -3.048   3.240  -1.973  0.00  0.00     0.280 HD
ENDBRANCH  13  14
ENDBRANCH   1  13
BRANCH   9  22
ATOM     22  O3  <0> d   1       3.410   5.967  -0.217  0.00  0.00    -0.302 OA
BRANCH  22  23
ATOM     23  C17 <0> d   1       3.900   6.372  -1.419  0.00  0.00     0.109 A 
ATOM     24  C22 <0> d   1       4.987   7.240  -1.473  0.00  0.00     0.102 A 
ATOM     25  C21 <0> d   1       5.482   7.649  -2.700  0.00  0.00     0.039 A 
ATOM     26  C20 <0> d   1       4.897   7.196  -3.868  0.00  0.00     0.003 A 
ATOM     27  C19 <0> d   1       3.817   6.333  -3.814  0.00  0.00     0.003 A 
ATOM     28  C18 <0> d   1       3.321   5.917  -2.593  0.00  0.00     0.040 A 
BRANCH  24  29
ATOM     29  O4  <0> d   1       5.561   7.685  -0.323  0.00  0.00    -0.353 OA
ATOM     30  C23 <0> d   1       6.673   8.573  -0.455  0.00  0.00     0.210 C 
ENDBRANCH  24  29
ENDBRANCH  22  23
ENDBRANCH   9  22
TORSDOF 5
