REMARK  7 active torsions:
REMARK  status: ('A' for Active; 'I' for Inactive)
REMARK    1  A    between atoms: C3_3  and  C17_24 
REMARK    2  A    between atoms: C4_4  and  C5_8 
REMARK    3  A    between atoms: C8_11  and  O2_15 
REMARK    4  A    between atoms: C10_13  and  O1_14 
REMARK    5  A    between atoms: O2_15  and  C11_16 
REMARK    6  A    between atoms: C11_16  and  C12_17 
REMARK    7  A    between atoms: C12_17  and  N3_18 
ROOT
ATOM      1  C5  <0> d   1       0.932  -4.137  -1.716  0.00  0.00     0.029 A 
ATOM      2  C6  <0> d   1       0.826  -3.612  -3.003  0.00  0.00     0.019 A 
ATOM      3  C7  <0> d   1       0.737  -4.458  -4.088  0.00  0.00     0.038 A 
ATOM      4  C8  <0> d   1       0.751  -5.835  -3.903  0.00  0.00     0.071 A 
ATOM      5  C9  <0> d   1       0.855  -6.366  -2.626  0.00  0.00     0.074 A 
ATOM      6  C10 <0> d   1       0.952  -5.523  -1.531  0.00  0.00     0.081 A 
ENDROOT
BRANCH   1   7
ATOM      7  C4  <0> d   1       1.028  -3.229  -0.548  0.00  0.00     0.103 A 
ATOM      8  C3  <0> d   1       0.215  -2.094  -0.303  0.00  0.00     0.029 A 
ATOM      9  C2  <0> d   1       0.628  -1.541   0.872  0.00  0.00     0.037 A 
ATOM     10  C1  <0> d   1       0.049  -0.313   1.526  0.00  0.00     0.070 C 
ATOM     11  N2  <0> d   1       1.651  -2.284   1.341  0.00  0.00    -0.281 N 
ATOM     12  N1  <0> d   1       1.883  -3.335   0.446  0.00  0.00    -0.173 NA
ATOM     13  H1  <0> d   1       2.142  -2.119   2.162  0.00  0.00     0.189 HD
BRANCH   8  14
ATOM     14  C17 <0> d   1      -0.884  -1.599  -1.168  0.00  0.00    -0.021 A 
ATOM     15  C22 <0> d   1      -0.758  -0.379  -1.829  0.00  0.00     0.014 A 
ATOM     16  C21 <0> d   1      -1.782   0.075  -2.636  0.00  0.00     0.020 A 
ATOM     17  C20 <0> d   1      -2.937  -0.675  -2.780  0.00  0.00     0.011 A 
ATOM     18  C19 <0> d   1      -3.068  -1.885  -2.122  0.00  0.00     0.020 A 
ATOM     19 Br1  <0> d   1      -4.338  -0.044  -3.881  0.00  0.00    -0.051 Br
ATOM     20  C18 <0> d   1      -2.048  -2.350  -1.317  0.00  0.00     0.014 A 
ENDBRANCH   8  14
ENDBRANCH   1   7
BRANCH   6  21
ATOM     21  O1  <0> d   1       1.060  -6.042  -0.280  0.00  0.00    -0.360 OA
ATOM     22  H8  <0> d   1       0.211  -6.194   0.157  0.00  0.00     0.217 HD
ENDBRANCH   6  21
BRANCH   4  23
ATOM     23  O2  <0> d   1       0.661  -6.663  -4.976  0.00  0.00    -0.349 OA
BRANCH  23  24
ATOM     24  C11 <0> d   1       0.556  -6.050  -6.262  0.00  0.00     0.206 C 
BRANCH  24  25
ATOM     25  C12 <0> d   1       0.466  -7.134  -7.338  0.00  0.00     0.299 C 
BRANCH  25  26
ATOM     26  N3  <0> d   1      -0.776  -7.899  -7.160  0.00  0.00     0.094 N 
ATOM     27  C16 <0> d   1      -1.938  -7.134  -7.635  0.00  0.00     0.298 C 
ATOM     28  C15 <0> d   1      -3.213  -7.941  -7.377  0.00  0.00     0.198 C 
ATOM     29  O3  <0> d   1      -3.104  -9.213  -8.020  0.00  0.00    -0.388 OA
ATOM     30  C14 <0> d   1      -1.983  -9.986  -7.581  0.00  0.00     0.198 C 
ATOM     31  C13 <0> d   1      -0.695  -9.200  -7.841  0.00  0.00     0.298 C 
ENDBRANCH  25  26
ENDBRANCH  24  25
ENDBRANCH  23  24
ENDBRANCH   4  23
TORSDOF 7
