REMARK  4 active torsions:
REMARK  status: ('A' for Active; 'I' for Inactive)
REMARK    1  A    between atoms: C2_2  and  O1_3 
REMARK    2  A    between atoms: O1_3  and  C3_4 
REMARK       I    between atoms: C3_4  and  N1_6 
REMARK    3  A    between atoms: N2_9  and  C8_12 
REMARK    4  A    between atoms: C8_12  and  C9_13 
ROOT
ATOM      1  C9  <0> d   1      -0.432   3.373   3.549  0.00  0.00    -0.014 A 
ATOM      2  C10 <0> d   1      -0.568   2.348   4.430  0.00  0.00     0.092 A 
ATOM      3  C11 <0> d   1       0.386   2.171   5.453  0.00  0.00     0.288 A 
ATOM      4  O3  <0> d   1       0.255   1.245   6.234  0.00  0.00    -0.260 OA
ATOM      5  O4  <0> d   1       1.432   3.001   5.593  0.00  0.00    -0.275 OA
ATOM      6  C12 <0> d   1       1.622   4.042   4.755  0.00  0.00     0.093 A 
ATOM      7  C13 <0> d   1       0.711   4.274   3.707  0.00  0.00     0.008 A 
ATOM      8  C14 <0> d   1       0.904   5.352   2.836  0.00  0.00     0.041 A 
ATOM      9  C15 <0> d   1       1.979   6.178   3.007  0.00  0.00     0.071 A 
ATOM     10  C16 <0> d   1       2.885   5.953   4.043  0.00  0.00     0.131 A 
ATOM     11  C17 <0> d   1       2.708   4.890   4.914  0.00  0.00     0.080 A 
ATOM     12  O5  <0> d   1       3.948   6.782   4.199  0.00  0.00    -0.190 OA
ATOM     13 Cl1  <0> d   1       2.219   7.516   1.927  0.00  0.00    -0.081 Cl
ENDROOT
BRANCH   1  14
ATOM     14  C8  <0> d   1      -1.434   3.580   2.443  0.00  0.00     0.274 C 
BRANCH  14  15
ATOM     15  N2  <0> d   1      -0.895   3.043   1.186  0.00  0.00    -0.064 N 
ATOM     16  C5  <0> d   1      -0.738   1.584   1.263  0.00  0.00     0.255 C 
ATOM     17  C4  <0> d   1      -0.013   1.086   0.008  0.00  0.00     0.156 C 
ATOM     18  N1  <0> d   1      -0.732   1.577  -1.178  0.00  0.00    -0.325 N 
ATOM     19  C3  <0> d   1      -1.095   0.734  -2.164  0.00  0.00     0.362 C 
ATOM     20  C7  <0> d   1      -1.043   3.012  -1.258  0.00  0.00     0.156 C 
ATOM     21  O2  <0> d   1      -0.829  -0.449  -2.082  0.00  0.00    -0.238 OA
ATOM     22  C6  <0> d   1      -1.732   3.434   0.044  0.00  0.00     0.255 C 
ATOM     23  H19 <0> d   1       0.104   3.478   1.030  0.00  0.00     0.280 HD
BRANCH  19  24
ATOM     24  O1  <0> d   1      -1.752   1.202  -3.242  0.00  0.00    -0.304 OA
BRANCH  24  25
ATOM     25  C2  <0> d   1      -2.112   0.237  -4.266  0.00  0.00     0.176 C 
ATOM     26  C1  <0> d   1      -2.847   0.950  -5.403  0.00  0.00     0.034 C 
ENDBRANCH  24  25
ENDBRANCH  19  24
ENDBRANCH  14  15
ENDBRANCH   1  14
TORSDOF 4
