REMARK  4 active torsions:
REMARK  status: ('A' for Active; 'I' for Inactive)
REMARK    1  A    between atoms: C9_10  and  C10_11 
REMARK    2  A    between atoms: C13_14  and  O3_19 
REMARK    3  A    between atoms: C14_15  and  O2_17 
REMARK    4  A    between atoms: N1_24  and  C21_27 
ROOT
ATOM      1  C1  <0> d   1      -0.025   4.106  -0.780  0.00  0.00     0.054 C 
ATOM      2  C2  <0> d   1       1.246   3.380  -0.420  0.00  0.00     0.007 A 
ATOM      3  C3  <0> d   1       1.205   2.031  -0.097  0.00  0.00     0.087 A 
ATOM      4  C4  <0> d   1       2.372   1.351   0.236  0.00  0.00     0.005 A 
ATOM      5  C5  <0> d   1       3.571   2.011   0.249  0.00  0.00     0.030 A 
ATOM      6  C6  <0> d   1       3.625   3.366  -0.073  0.00  0.00     0.052 A 
ATOM      7  C7  <0> d   1       2.455   4.064  -0.412  0.00  0.00     0.099 A 
ATOM      8  O1  <0> d   1       2.755   5.353  -0.683  0.00  0.00    -0.305 OA
ATOM      9  C8  <0> d   1       4.079   5.600  -0.550  0.00  0.00     0.127 A 
ATOM     10  C9  <0> d   1       4.697   6.792  -0.751  0.00  0.00     0.053 C 
ATOM     11  C18 <0> d   1       4.728   4.342  -0.150  0.00  0.00     0.218 A 
ATOM     12  O4  <0> d   1       5.911   4.150   0.068  0.00  0.00    -0.284 OA
ATOM     13  C19 <0> d   1       2.337  -0.116   0.585  0.00  0.00     0.317 C 
ATOM     14  N1  <0> d   1       0.960  -0.511   0.910  0.00  0.00     0.121 N 
ATOM     15  C20 <0> d   1       0.036  -0.042  -0.136  0.00  0.00     0.448 C 
ATOM     16  O5  <0> d   1       0.008   1.387  -0.112  0.00  0.00    -0.320 OA
ENDROOT
BRANCH  10  17
ATOM     17  C10 <0> d   1       3.934   7.937  -1.261  0.00  0.00    -0.031 A 
ATOM     18  C15 <0> d   1       4.590   9.131  -1.585  0.00  0.00     0.051 A 
ATOM     19  C14 <0> d   1       3.867  10.203  -2.068  0.00  0.00     0.102 A 
ATOM     20  C13 <0> d   1       2.485  10.100  -2.223  0.00  0.00     0.101 A 
ATOM     21  C12 <0> d   1       1.832   8.918  -1.898  0.00  0.00     0.040 A 
ATOM     22  C11 <0> d   1       2.545   7.842  -1.419  0.00  0.00     0.014 A 
BRANCH  19  23
ATOM     23  O2  <0> d   1       4.502  11.363  -2.389  0.00  0.00    -0.353 OA
ATOM     24  C16 <0> d   1       5.919  11.398  -2.205  0.00  0.00     0.210 C 
ENDBRANCH  19  23
BRANCH  20  25
ATOM     25  O3  <0> d   1       1.776  11.158  -2.694  0.00  0.00    -0.353 OA
ATOM     26  C17 <0> d   1       0.363  10.985  -2.828  0.00  0.00     0.210 C 
ENDBRANCH  20  25
ENDBRANCH  10  17
BRANCH  14  27
ATOM     27  C21 <0> d   1       0.858  -1.966   1.087  0.00  0.00     0.240 C 
ATOM     28  C24 <0> d   1       1.115  -2.680  -0.270  0.00  0.00     0.176 C 
ATOM     29  S1  <0> d   1       1.537  -4.375   0.315  0.00  0.00     0.146 S 
ATOM     30  C23 <0> d   1       2.039  -3.986   2.041  0.00  0.00     0.142 C 
ATOM     31  O6  <0> d   1       0.354  -5.162   0.344  0.00  0.00    -0.228 OA
ATOM     32  O7  <0> d   1       2.671  -4.843  -0.403  0.00  0.00    -0.228 OA
ATOM     33  C22 <0> d   1       1.923  -2.443   2.088  0.00  0.00     0.052 C 
ENDBRANCH  14  27
TORSDOF 4
