REMARK  5 active torsions:
REMARK  status: ('A' for Active; 'I' for Inactive)
REMARK    1  A    between atoms: C6_6  and  C12_14 
REMARK    2  A    between atoms: C12_14  and  N1_15 
REMARK    3  A    between atoms: N2_18  and  C17_21 
REMARK    4  A    between atoms: C17_21  and  C18_22 
REMARK    5  A    between atoms: C18_22  and  C19_23 
ROOT
ATOM      1  N1  <0> d   1      -1.315  -5.181  -1.794  0.00  0.00     0.096 N 
ATOM      2  C13 <0> d   1      -1.904  -3.889  -2.171  0.00  0.00     0.303 C 
ATOM      3  C14 <0> d   1      -3.363  -4.098  -2.583  0.00  0.00     0.302 C 
ATOM      4  N2  <0> d   1      -3.423  -5.047  -3.703  0.00  0.00     0.092 N 
ATOM      5  C15 <0> d   1      -2.833  -6.340  -3.326  0.00  0.00     0.302 C 
ATOM      6  C16 <0> d   1      -1.374  -6.131  -2.915  0.00  0.00     0.303 C 
ENDROOT
BRANCH   1   7
ATOM      7  C12 <0> d   1       0.066  -5.012  -1.320  0.00  0.00     0.312 C 
BRANCH   7   8
ATOM      8  C6  <0> d   1       0.061  -4.234  -0.030  0.00  0.00    -0.011 A 
ATOM      9  C5  <0> d   1       0.040  -2.768  -0.035  0.00  0.00     0.007 A 
ATOM     10  C4  <0> d   1       0.025  -2.050  -1.235  0.00  0.00     0.015 A 
ATOM     11  C9  <0> d   1       0.037  -2.082   1.193  0.00  0.00     0.096 A 
ATOM     12  C3  <0> d   1       0.006  -0.684  -1.207  0.00  0.00     0.008 A 
ATOM     13  C2  <0> d   1       0.002  -0.004   0.002  0.00  0.00    -0.053 A 
ATOM     14  C1  <0> d   1      -0.018   1.503   0.010  0.00  0.00     0.049 C 
ATOM     15  C10 <0> d   1       0.023  -0.693   1.196  0.00  0.00    -0.021 A 
ATOM     16  C11 <0> d   1       0.025   0.059   2.502  0.00  0.00     0.052 C 
ATOM     17  O2  <0> d   1       0.053  -2.776   2.350  0.00  0.00    -0.274 OA
ATOM     18  C8  <0> d   1       0.072  -4.118   2.363  0.00  0.00     0.288 A 
ATOM     19  C7  <0> d   1       0.077  -4.870   1.169  0.00  0.00     0.092 A 
ATOM     20  O1  <0> d   1       0.086  -4.701   3.432  0.00  0.00    -0.260 OA
ENDBRANCH   7   8
ENDBRANCH   1   7
BRANCH   4  21
ATOM     21  C17 <0> d   1      -4.803  -5.217  -4.177  0.00  0.00     0.277 C 
BRANCH  21  22
ATOM     22  C18 <0> d   1      -4.798  -6.007  -5.487  0.00  0.00     0.069 C 
BRANCH  22  23
ATOM     23  C19 <0> d   1      -6.214  -6.181  -5.974  0.00  0.00    -0.054 A 
ATOM     24  C23 <0> d   1      -6.795  -5.245  -6.816  0.00  0.00     0.026 A 
ATOM     25  C22 <0> d   1      -8.094  -5.441  -7.247  0.00  0.00     0.116 A 
ATOM     26  N3  <0> d   1      -8.782  -6.496  -6.856  0.00  0.00    -0.273 NA
ATOM     27  C21 <0> d   1      -8.264  -7.403  -6.051  0.00  0.00     0.116 A 
ATOM     28  C20 <0> d   1      -6.969  -7.277  -5.585  0.00  0.00     0.026 A 
ENDBRANCH  22  23
ENDBRANCH  21  22
ENDBRANCH   4  21
TORSDOF 5
