REMARK  1 active torsions:
REMARK  status: ('A' for Active; 'I' for Inactive)
REMARK    1  A    between atoms: C9_10  and  C10_11 
ROOT
ATOM      1  C1  <0> d   1       0.944   5.785   1.071  0.00  0.00     0.054 C 
ATOM      2  C2  <0> d   1       1.466   4.376   0.962  0.00  0.00     0.009 A 
ATOM      3  C3  <0> d   1       2.819   4.124   1.126  0.00  0.00     0.116 A 
ATOM      4  C4  <0> d   1       3.315   2.826   1.028  0.00  0.00     0.041 A 
ATOM      5  C5  <0> d   1       2.468   1.786   0.767  0.00  0.00     0.021 A 
ATOM      6  C6  <0> d   1       1.104   2.025   0.599  0.00  0.00     0.051 A 
ATOM      7  C7  <0> d   1       0.592   3.329   0.696  0.00  0.00     0.099 A 
ATOM      8  O1  <0> d   1      -0.744   3.311   0.499  0.00  0.00    -0.305 OA
ATOM      9  C8  <0> d   1      -1.200   2.058   0.262  0.00  0.00     0.128 A 
ATOM     10  C9  <0> d   1      -2.489   1.706   0.021  0.00  0.00     0.056 C 
ATOM     11  C16 <0> d   1      -0.046   1.148   0.317  0.00  0.00     0.218 A 
ATOM     12  O2  <0> d   1      -0.042  -0.061   0.159  0.00  0.00    -0.284 OA
ATOM     13  O3  <0> d   1       3.668   5.150   1.385  0.00  0.00    -0.192 OA
ENDROOT
BRANCH  10  14
ATOM     14  C10 <0> d   1      -3.558   2.706   0.142  0.00  0.00     0.005 A 
ATOM     15  C15 <0> d   1      -4.895   2.299   0.245  0.00  0.00     0.126 A 
ATOM     16  C14 <0> d   1      -5.893   3.248   0.363  0.00  0.00     0.043 A 
ATOM     17  F1  <0> d   1      -5.207   0.985   0.234  0.00  0.00    -0.205 F 
ATOM     18  C13 <0> d   1      -5.575   4.594   0.369  0.00  0.00     0.003 A 
ATOM     19  C12 <0> d   1      -4.256   5.003   0.262  0.00  0.00     0.001 A 
ATOM     20  C11 <0> d   1      -3.248   4.071   0.149  0.00  0.00     0.014 A 
ENDBRANCH  10  14
TORSDOF 1
