REMARK  7 active torsions:
REMARK  status: ('A' for Active; 'I' for Inactive)
REMARK    1  A    between atoms: C2_2  and  N1_3 
REMARK    2  A    between atoms: N2_6  and  C7_9 
REMARK    3  A    between atoms: C7_9  and  C8_10 
REMARK    4  A    between atoms: C9_11  and  O5_31 
REMARK    5  A    between atoms: C15_18  and  C17_21 
REMARK    6  A    between atoms: C20_24  and  O4_29 
REMARK    7  A    between atoms: C21_25  and  O3_27 
ROOT
ATOM      1  C8  <0> d   1      -0.631   1.724   3.640  0.00  0.00     0.038 A 
ATOM      2  C9  <0> d   1      -1.744   1.203   4.279  0.00  0.00     0.076 A 
ATOM      3  C10 <0> d   1      -2.279   1.835   5.400  0.00  0.00     0.038 A 
ATOM      4  C11 <0> d   1      -1.710   2.978   5.883  0.00  0.00     0.021 A 
ATOM      5  C12 <0> d   1      -0.588   3.515   5.250  0.00  0.00     0.050 A 
ATOM      6  C13 <0> d   1      -0.038   2.883   4.121  0.00  0.00     0.100 A 
ATOM      7  O1  <0> d   1       1.049   3.400   3.515  0.00  0.00    -0.320 OA
ATOM      8  C14 <0> d   1       1.663   4.510   3.932  0.00  0.00     0.159 A 
ATOM      9  C15 <0> d   1       1.240   5.217   5.012  0.00  0.00     0.048 A 
ATOM     10  C16 <0> d   1       0.052   4.748   5.744  0.00  0.00     0.197 A 
ATOM     11  O2  <0> d   1      -0.373   5.342   6.720  0.00  0.00    -0.286 OA
ENDROOT
BRANCH   9  12
ATOM     12  C17 <0> d   1       1.955   6.445   5.438  0.00  0.00    -0.017 A 
ATOM     13  C22 <0> d   1       3.339   6.425   5.606  0.00  0.00     0.052 A 
ATOM     14  C21 <0> d   1       4.002   7.574   5.998  0.00  0.00     0.102 A 
ATOM     15  C20 <0> d   1       3.286   8.744   6.235  0.00  0.00     0.101 A 
ATOM     16  C19 <0> d   1       1.909   8.762   6.074  0.00  0.00     0.040 A 
ATOM     17  C18 <0> d   1       1.244   7.619   5.677  0.00  0.00     0.015 A 
BRANCH  14  18
ATOM     18  O3  <0> d   1       5.353   7.558   6.158  0.00  0.00    -0.353 OA
ATOM     19  C23 <0> d   1       6.023   6.323   5.897  0.00  0.00     0.210 C 
ENDBRANCH  14  18
BRANCH  15  20
ATOM     20  O4  <0> d   1       3.938   9.871   6.626  0.00  0.00    -0.353 OA
ATOM     21  C24 <0> d   1       3.142  11.036   6.852  0.00  0.00     0.210 C 
ENDBRANCH  15  20
ENDBRANCH   9  12
BRANCH   1  22
ATOM     22  C7  <0> d   1      -0.062   1.031   2.429  0.00  0.00     0.317 C 
BRANCH  22  23
ATOM     23  N2  <0> d   1      -0.701   1.560   1.216  0.00  0.00     0.096 N 
ATOM     24  C4  <0> d   1      -0.013   1.086   0.008  0.00  0.00     0.303 C 
ATOM     25  C3  <0> d   1      -0.754   1.593  -1.231  0.00  0.00     0.302 C 
ATOM     26  N1  <0> d   1      -0.806   3.062  -1.200  0.00  0.00     0.091 N 
ATOM     27  C6  <0> d   1      -1.495   3.536   0.008  0.00  0.00     0.302 C 
ATOM     28  C5  <0> d   1      -0.754   3.029   1.247  0.00  0.00     0.303 C 
BRANCH  26  29
ATOM     29  C2  <0> d   1      -1.445   3.591  -2.413  0.00  0.00     0.268 C 
ATOM     30  C1  <0> d   1      -1.707   5.088  -2.239  0.00  0.00     0.037 C 
ENDBRANCH  26  29
ENDBRANCH  22  23
ENDBRANCH   1  22
BRANCH   2  31
ATOM     31  O5  <0> d   1      -2.319   0.067   3.809  0.00  0.00    -0.360 OA
ATOM     32  H28 <0> d   1      -3.203  -0.351   4.313  0.00  0.00     0.217 HD
ENDBRANCH   2  31
TORSDOF 7
