REMARK  5 active torsions:
REMARK  status: ('A' for Active; 'I' for Inactive)
REMARK    1  A    between atoms: C7_8  and  C8_10 
REMARK    2  A    between atoms: C8_10  and  C9_13 
REMARK    3  A    between atoms: C9_13  and  C10_15 
REMARK    4  A    between atoms: C13_18  and  O4_22 
REMARK    5  A    between atoms: C15_20  and  O3_21 
ROOT
ATOM      1  C8  <0> d   1       2.978  -4.018  -0.026  0.00  0.00     0.173 C 
ATOM      2  N2  <0> d   1       2.045  -4.927  -0.007  0.00  0.00    -0.091 NA
ATOM      3  O1  <0> d   1       0.682  -4.542   0.031  0.00  0.00    -0.060 OA
ENDROOT
BRANCH   1   4
ATOM      4  C7  <0> d   1       2.616  -2.585  -0.009  0.00  0.00     0.134 A 
ATOM      5  N1  <0> d   1       1.421  -2.036   0.025  0.00  0.00    -0.238 NA
ATOM      6  C5  <0> d   1       1.234  -0.709   0.037  0.00  0.00     0.075 A 
ATOM      7  C4  <0> d   1       2.411   0.078   0.010  0.00  0.00     0.035 A 
ATOM      8  C6  <0> d   1       0.009   0.002   0.072  0.00  0.00     0.033 A 
ATOM      9  C3  <0> d   1       2.382   1.452   0.018  0.00  0.00     0.021 A 
ATOM     10  S1  <0> d   1       3.689  -1.156  -0.030  0.00  0.00    -0.066 SA
ATOM     11  C2  <0> d   1       1.165   2.105   0.052  0.00  0.00     0.002 A 
ATOM     12  C1  <0> d   1      -0.007   1.361   0.079  0.00  0.00     0.002 A 
ENDBRANCH   1   4
BRANCH   1  13
ATOM     13  C9  <0> d   1       4.403  -4.420  -0.065  0.00  0.00     0.218 C 
ATOM     14  O2  <0> d   1       5.271  -3.576  -0.180  0.00  0.00    -0.285 OA
BRANCH  13  15
ATOM     15  C10 <0> d   1       4.768  -5.842   0.034  0.00  0.00     0.050 A 
ATOM     16  C15 <0> d   1       6.119  -6.219   0.119  0.00  0.00     0.082 A 
ATOM     17  C14 <0> d   1       6.451  -7.559   0.218  0.00  0.00     0.074 A 
ATOM     18  C13 <0> d   1       5.450  -8.521   0.221  0.00  0.00     0.068 A 
ATOM     19  C12 <0> d   1       4.113  -8.144   0.131  0.00  0.00     0.037 A 
ATOM     20  C11 <0> d   1       3.772  -6.825   0.039  0.00  0.00     0.021 A 
BRANCH  16  21
ATOM     21  O3  <0> d   1       7.093  -5.275   0.109  0.00  0.00    -0.360 OA
ATOM     22  H8  <0> d   1       7.334  -4.949   0.987  0.00  0.00     0.217 HD
ENDBRANCH  16  21
BRANCH  18  23
ATOM     23  O4  <0> d   1       5.777  -9.835   0.313  0.00  0.00    -0.361 OA
ATOM     24  H9  <0> d   1       5.917 -10.266  -0.541  0.00  0.00     0.217 HD
ENDBRANCH  18  23
ENDBRANCH  13  15
ENDBRANCH   1  13
TORSDOF 5
