REMARK  5 active torsions:
REMARK  status: ('A' for Active; 'I' for Inactive)
REMARK    1  A    between atoms: O1_2  and  C2_3 
REMARK    2  A    between atoms: C6_7  and  C11_14 
REMARK    3  A    between atoms: C11_14  and  N1_15 
REMARK    4  A    between atoms: N2_18  and  C16_21 
REMARK    5  A    between atoms: C16_21  and  C17_22 
ROOT
ATOM      1  C11 <0> d   1      -0.062   1.031   2.429  0.00  0.00     0.312 C 
ENDROOT
BRANCH   1   2
ATOM      2  C6  <0> d   1      -0.631   1.724   3.640  0.00  0.00    -0.011 A 
ATOM      3  C5  <0> d   1      -1.926   1.325   4.196  0.00  0.00     0.006 A 
ATOM      4  C4  <0> d   1      -2.665   0.282   3.625  0.00  0.00     0.017 A 
ATOM      5  C9  <0> d   1      -2.417   1.996   5.331  0.00  0.00     0.093 A 
ATOM      6  C3  <0> d   1      -3.866  -0.073   4.166  0.00  0.00     0.038 A 
ATOM      7  C2  <0> d   1      -4.359   0.592   5.287  0.00  0.00     0.070 A 
ATOM      8  C10 <0> d   1      -3.639   1.622   5.868  0.00  0.00     0.075 A 
ATOM      9  O3  <0> d   1      -1.698   2.998   5.882  0.00  0.00    -0.275 OA
ATOM     10  C8  <0> d   1      -0.513   3.372   5.374  0.00  0.00     0.288 A 
ATOM     11  C7  <0> d   1       0.041   2.739   4.242  0.00  0.00     0.092 A 
ATOM     12  O2  <0> d   1       0.100   4.281   5.905  0.00  0.00    -0.260 OA
BRANCH   7  13
ATOM     13  O1  <0> d   1      -5.556   0.227   5.814  0.00  0.00    -0.356 OA
ATOM     14  C1  <0> d   1      -6.250  -0.843   5.169  0.00  0.00     0.210 C 
ENDBRANCH   7  13
ENDBRANCH   1   2
BRANCH   1  15
ATOM     15  N1  <0> d   1      -0.701   1.560   1.216  0.00  0.00     0.096 N 
ATOM     16  C15 <0> d   1      -0.754   3.029   1.247  0.00  0.00     0.303 C 
ATOM     17  C14 <0> d   1      -1.495   3.536   0.008  0.00  0.00     0.303 C 
ATOM     18  N2  <0> d   1      -0.806   3.062  -1.200  0.00  0.00     0.096 N 
ATOM     19  C13 <0> d   1      -0.754   1.593  -1.231  0.00  0.00     0.303 C 
ATOM     20  C12 <0> d   1      -0.013   1.086   0.008  0.00  0.00     0.303 C 
BRANCH  18  21
ATOM     21  C16 <0> d   1      -1.445   3.591  -2.413  0.00  0.00     0.311 C 
BRANCH  21  22
ATOM     22  C17 <0> d   1      -1.263   5.086  -2.464  0.00  0.00    -0.030 A 
ATOM     23  C22 <0> d   1      -0.155   5.627  -3.090  0.00  0.00     0.009 A 
ATOM     24  C21 <0> d   1       0.011   6.998  -3.138  0.00  0.00     0.001 A 
ATOM     25  C20 <0> d   1      -0.930   7.829  -2.559  0.00  0.00     0.000 A 
ATOM     26  C19 <0> d   1      -2.038   7.288  -1.933  0.00  0.00     0.001 A 
ATOM     27  C18 <0> d   1      -2.207   5.917  -1.890  0.00  0.00     0.009 A 
ENDBRANCH  21  22
ENDBRANCH  18  21
ENDBRANCH   1  15
TORSDOF 5
