REMARK  6 active torsions:
REMARK  status: ('A' for Active; 'I' for Inactive)
REMARK    1  A    between atoms: C4_4  and  O4_35 
REMARK    2  A    between atoms: C5_5  and  C17_20 
REMARK    3  A    between atoms: C10_11  and  C11_12 
REMARK    4  A    between atoms: C17_20  and  N1_21 
REMARK    5  A    between atoms: N2_24  and  C22_27 
REMARK    6  A    between atoms: C25_30  and  O3_33 
ROOT
ATOM      1  C1  <0> d   1      -0.211   1.107  -0.733  0.00  0.00     0.049 C 
ATOM      2  C2  <0> d   1      -0.093  -0.393  -0.662  0.00  0.00    -0.042 A 
ATOM      3  C3  <0> d   1      -0.101  -1.136  -1.809  0.00  0.00     0.045 A 
ATOM      4  C4  <0> d   1       0.008  -2.522  -1.745  0.00  0.00     0.077 A 
ATOM      5  C5  <0> d   1       0.126  -3.165  -0.523  0.00  0.00     0.038 A 
ATOM      6  C6  <0> d   1       0.136  -2.425   0.652  0.00  0.00     0.102 A 
ATOM      7  C7  <0> d   1       0.031  -1.026   0.575  0.00  0.00     0.057 A 
ATOM      8  C8  <0> d   1       0.077  -0.529   1.962  0.00  0.00     0.219 A 
ATOM      9  O1  <0> d   1       0.012   0.627   2.343  0.00  0.00    -0.284 OA
ATOM     10  C9  <0> d   1       0.219  -1.741   2.784  0.00  0.00     0.128 A 
ATOM     11  C10 <0> d   1       0.305  -1.786   4.137  0.00  0.00     0.053 C 
ATOM     12  O2  <0> d   1       0.237  -2.804   1.945  0.00  0.00    -0.305 OA
ENDROOT
BRANCH   5  13
ATOM     13  C17 <0> d   1       0.242  -4.666  -0.469  0.00  0.00     0.317 C 
BRANCH  13  14
ATOM     14  N1  <0> d   1       1.659  -5.050  -0.530  0.00  0.00     0.096 N 
ATOM     15  C21 <0> d   1       1.804  -6.500  -0.719  0.00  0.00     0.292 C 
ATOM     16  C20 <0> d   1       3.280  -6.835  -0.957  0.00  0.00     0.153 C 
ATOM     17  N2  <0> d   1       4.072  -6.269   0.145  0.00  0.00    -0.378 N 
ATOM     18  C19 <0> d   1       3.879  -4.851   0.484  0.00  0.00     0.153 C 
ATOM     19  C18 <0> d   1       2.379  -4.593   0.666  0.00  0.00     0.292 C 
BRANCH  17  20
ATOM     20  C22 <0> d   1       4.985  -7.059   0.853  0.00  0.00     0.030 A 
ATOM     21  C27 <0> d   1       5.635  -6.541   1.965  0.00  0.00     0.032 A 
ATOM     22  C26 <0> d   1       6.532  -7.323   2.666  0.00  0.00     0.039 A 
ATOM     23  C25 <0> d   1       6.793  -8.621   2.252  0.00  0.00     0.068 A 
ATOM     24  C24 <0> d   1       6.148  -9.137   1.138  0.00  0.00     0.039 A 
ATOM     25  C23 <0> d   1       5.246  -8.358   0.439  0.00  0.00     0.032 A 
BRANCH  23  26
ATOM     26  O3  <0> d   1       7.681  -9.388   2.939  0.00  0.00    -0.356 OA
ATOM     27  C28 <0> d   1       8.308  -8.793   4.077  0.00  0.00     0.210 C 
ENDBRANCH  23  26
ENDBRANCH  17  20
ENDBRANCH  13  14
ENDBRANCH   5  13
BRANCH   4  28
ATOM     28  O4  <0> d   1      -0.001  -3.251  -2.890  0.00  0.00    -0.360 OA
ATOM     29  H27 <0> d   1       0.876  -3.395  -3.272  0.00  0.00     0.217 HD
ENDBRANCH   4  28
BRANCH  11  30
ATOM     30  C11 <0> d   1       0.330  -3.082   4.828  0.00  0.00    -0.033 A 
ATOM     31  C16 <0> d   1       0.394  -4.271   4.092  0.00  0.00     0.014 A 
ATOM     32  C15 <0> d   1       0.424  -5.483   4.747  0.00  0.00     0.043 A 
ATOM     33  C14 <0> d   1       0.379  -5.527   6.132  0.00  0.00     0.116 A 
ATOM     34  C13 <0> d   1       0.309  -4.354   6.868  0.00  0.00     0.043 A 
ATOM     35  F1  <0> d   1       0.402  -6.719   6.768  0.00  0.00    -0.206 F 
ATOM     36  C12 <0> d   1       0.285  -3.135   6.227  0.00  0.00     0.014 A 
ENDBRANCH  11  30
TORSDOF 6
