REMARK  6 active torsions:
REMARK  status: ('A' for Active; 'I' for Inactive)
REMARK    1  A    between atoms: C2_2  and  O1_3 
REMARK    2  A    between atoms: O1_3  and  C3_4 
REMARK    3  A    between atoms: C6_7  and  C9_11 
REMARK    4  A    between atoms: C10_12  and  O3_17 
REMARK    5  A    between atoms: O3_17  and  C12_18 
REMARK    6  A    between atoms: C17_23  and  O4_24 
ROOT
ATOM      1  C9  <0> d   1       0.948  -5.997  -1.914  0.00  0.00     0.125 A 
ATOM      2  C10 <0> d   1       1.508  -6.673  -3.020  0.00  0.00     0.124 A 
ATOM      3  C11 <0> d   1       1.308  -8.000  -2.840  0.00  0.00     0.149 A 
ATOM      4  N1  <0> d   1       0.645  -8.164  -1.664  0.00  0.00    -0.286 N 
ATOM      5  N2  <0> d   1       0.437  -6.898  -1.102  0.00  0.00    -0.172 NA
ATOM      6  H1  <0> d   1       0.368  -9.011  -1.280  0.00  0.00     0.188 HD
ENDROOT
BRANCH   1   7
ATOM      7  C6  <0> d   1       0.943  -4.529  -1.702  0.00  0.00     0.034 A 
ATOM      8  C5  <0> d   1       0.576  -3.675  -2.739  0.00  0.00     0.020 A 
ATOM      9  C4  <0> d   1       0.571  -2.310  -2.539  0.00  0.00     0.038 A 
ATOM     10  C3  <0> d   1       0.931  -1.784  -1.305  0.00  0.00     0.071 A 
ATOM     11  C8  <0> d   1       1.302  -2.628  -0.269  0.00  0.00     0.077 A 
ATOM     12  C7  <0> d   1       1.305  -3.999  -0.460  0.00  0.00     0.122 A 
ATOM     13  O2  <0> d   1       1.663  -4.828   0.556  0.00  0.00    -0.191 OA
BRANCH  10  14
ATOM     14  O1  <0> d   1       0.924  -0.439  -1.114  0.00  0.00    -0.351 OA
BRANCH  14  15
ATOM     15  C2  <0> d   1       0.531   0.372  -2.223  0.00  0.00     0.171 C 
ATOM     16  C1  <0> d   1       0.586   1.847  -1.821  0.00  0.00     0.034 C 
ENDBRANCH  14  15
ENDBRANCH  10  14
ENDBRANCH   1   7
BRANCH   2  17
ATOM     17  O3  <0> d   1       2.138  -6.093  -4.079  0.00  0.00    -0.304 OA
BRANCH  17  18
ATOM     18  C12 <0> d   1       2.516  -6.892  -5.112  0.00  0.00     0.109 A 
ATOM     19  C17 <0> d   1       1.598  -7.237  -6.100  0.00  0.00     0.102 A 
ATOM     20  C16 <0> d   1       1.991  -8.047  -7.154  0.00  0.00     0.039 A 
ATOM     21  C15 <0> d   1       3.288  -8.520  -7.215  0.00  0.00     0.003 A 
ATOM     22  C14 <0> d   1       4.199  -8.182  -6.231  0.00  0.00     0.003 A 
ATOM     23  C13 <0> d   1       3.816  -7.370  -5.180  0.00  0.00     0.040 A 
BRANCH  19  24
ATOM     24  O4  <0> d   1       0.321  -6.776  -6.034  0.00  0.00    -0.353 OA
ATOM     25  C18 <0> d   1      -0.566  -7.170  -7.083  0.00  0.00     0.210 C 
ENDBRANCH  19  24
ENDBRANCH  17  18
ENDBRANCH   2  17
TORSDOF 6
