REMARK  8 active torsions:
REMARK  status: ('A' for Active; 'I' for Inactive)
REMARK    1  A    between atoms: C4_4  and  C7_7 
REMARK    2  A    between atoms: C10_10  and  C13_13 
REMARK    3  A    between atoms: C19_20  and  O4_34 
REMARK    4  A    between atoms: C20_21  and  C22_24 
REMARK    5  A    between atoms: C22_24  and  N1_25 
REMARK    6  A    between atoms: N2_28  and  C27_31 
REMARK    7  A    between atoms: C27_31  and  C28_32 
REMARK    8  A    between atoms: C28_32  and  O3_33 
ROOT
ATOM      1  C13 <0> d   1       1.569  -2.019  -1.045  0.00  0.00     0.053 C 
ATOM      2  C14 <0> d   1       1.126  -0.737  -1.018  0.00  0.00     0.127 A 
ATOM      3  C15 <0> d   1      -0.270  -0.296  -1.165  0.00  0.00     0.218 A 
ATOM      4  O1  <0> d   1      -1.258  -0.990  -1.332  0.00  0.00    -0.284 OA
ATOM      5  C16 <0> d   1      -0.206   1.173  -1.063  0.00  0.00     0.051 A 
ATOM      6  C17 <0> d   1      -1.174   2.177  -1.116  0.00  0.00     0.021 A 
ATOM      7  C18 <0> d   1      -0.805   3.486  -0.992  0.00  0.00     0.038 A 
ATOM      8  C19 <0> d   1       0.533   3.821  -0.803  0.00  0.00     0.076 A 
ATOM      9  C20 <0> d   1       1.505   2.835  -0.744  0.00  0.00     0.038 A 
ATOM     10  C21 <0> d   1       1.147   1.498  -0.874  0.00  0.00     0.101 A 
ATOM     11  O2  <0> d   1       1.888   0.369  -0.852  0.00  0.00    -0.305 OA
ENDROOT
BRANCH   1  12
ATOM     12  C10 <0> d   1       3.009  -2.300  -0.993  0.00  0.00    -0.033 A 
ATOM     13  C9  <0> d   1       3.919  -1.259  -0.767  0.00  0.00     0.012 A 
ATOM     14  C8  <0> d   1       5.258  -1.523  -0.719  0.00  0.00     0.013 A 
ATOM     15  C7  <0> d   1       5.721  -2.828  -0.895  0.00  0.00    -0.026 A 
ATOM     16  C12 <0> d   1       4.816  -3.867  -1.119  0.00  0.00     0.013 A 
ATOM     17  C11 <0> d   1       3.475  -3.610  -1.163  0.00  0.00     0.012 A 
BRANCH  15  18
ATOM     18  C4  <0> d   1       7.175  -3.111  -0.843  0.00  0.00    -0.026 A 
ATOM     19  C3  <0> d   1       7.641  -4.414  -1.017  0.00  0.00     0.012 A 
ATOM     20  C2  <0> d   1       8.996  -4.671  -0.967  0.00  0.00     0.001 A 
ATOM     21  C1  <0> d   1       9.891  -3.640  -0.745  0.00  0.00     0.000 A 
ATOM     22  C6  <0> d   1       9.434  -2.346  -0.571  0.00  0.00     0.001 A 
ATOM     23  C5  <0> d   1       8.082  -2.075  -0.624  0.00  0.00     0.012 A 
ENDBRANCH  15  18
ENDBRANCH   1  12
BRANCH   9  24
ATOM     24  C22 <0> d   1       2.950   3.211  -0.540  0.00  0.00     0.317 C 
BRANCH  24  25
ATOM     25  N1  <0> d   1       3.590   3.421  -1.845  0.00  0.00     0.096 N 
ATOM     26  C26 <0> d   1       4.924   4.016  -1.688  0.00  0.00     0.300 C 
ATOM     27  C25 <0> d   1       5.524   4.292  -3.069  0.00  0.00     0.265 C 
ATOM     28  N2  <0> d   1       5.597   3.035  -3.827  0.00  0.00    -0.066 N 
ATOM     29  C24 <0> d   1       4.263   2.439  -3.985  0.00  0.00     0.265 C 
ATOM     30  H29 <0> d   1       6.219   2.329  -3.256  0.00  0.00     0.280 HD
ATOM     31  C23 <0> d   1       3.664   2.164  -2.604  0.00  0.00     0.300 C 
BRANCH  28  32
ATOM     32  C27 <0> d   1       6.238   3.244  -5.132  0.00  0.00     0.260 C 
BRANCH  32  33
ATOM     33  C28 <0> d   1       5.298   4.040  -6.040  0.00  0.00     0.192 C 
BRANCH  33  34
ATOM     34  O3  <0> d   1       5.139   5.362  -5.520  0.00  0.00    -0.399 OA
ATOM     35  H27 <0> d   1       4.495   6.085  -6.041  0.00  0.00     0.209 HD
ENDBRANCH  33  34
ENDBRANCH  32  33
ENDBRANCH  28  32
ENDBRANCH  24  25
ENDBRANCH   9  24
BRANCH   8  36
ATOM     36  O4  <0> d   1       0.890   5.124  -0.676  0.00  0.00    -0.360 OA
ATOM     37  H28 <0> d   1       1.946   5.394  -0.527  0.00  0.00     0.217 HD
ENDBRANCH   8  36
TORSDOF 8
