REMARK  6 active torsions:
REMARK  status: ('A' for Active; 'I' for Inactive)
REMARK    1  A    between atoms: N2_5  and  C6_8 
REMARK    2  A    between atoms: C6_8  and  C7_9 
REMARK    3  A    between atoms: C8_10  and  O5_30 
REMARK    4  A    between atoms: C14_18  and  C16_20 
REMARK    5  A    between atoms: C18_22  and  O4_28 
REMARK    6  A    between atoms: C21_25  and  O3_26 
ROOT
ATOM      1  C7  <0> d   1      -6.915   2.728   7.226  0.00  0.00     0.035 A 
ATOM      2  C8  <0> d   1      -7.205   4.066   7.435  0.00  0.00     0.076 A 
ATOM      3  C9  <0> d   1      -6.786   5.032   6.522  0.00  0.00     0.038 A 
ATOM      4  C10 <0> d   1      -6.084   4.671   5.410  0.00  0.00     0.017 A 
ATOM      5  C11 <0> d   1      -5.780   3.321   5.180  0.00  0.00    -0.000 A 
ATOM      6  C12 <0> d   1      -6.202   2.343   6.099  0.00  0.00     0.100 A 
ATOM      7  O1  <0> d   1      -5.918   1.038   5.895  0.00  0.00    -0.273 OA
ATOM      8  C13 <0> d   1      -5.229   0.636   4.814  0.00  0.00     0.299 A 
ATOM      9  O2  <0> d   1      -4.987  -0.546   4.654  0.00  0.00    -0.259 OA
ATOM     10  C14 <0> d   1      -4.768   1.616   3.827  0.00  0.00     0.053 A 
ATOM     11  C15 <0> d   1      -5.046   2.941   4.027  0.00  0.00     0.032 A 
ENDROOT
BRANCH  10  12
ATOM     12  C16 <0> d   1      -4.008   1.179   2.633  0.00  0.00     0.016 A 
ATOM     13  C21 <0> d   1      -4.618   0.370   1.670  0.00  0.00     0.079 A 
ATOM     14  C20 <0> d   1      -3.901  -0.035   0.556  0.00  0.00     0.040 A 
ATOM     15  C19 <0> d   1      -2.586   0.359   0.396  0.00  0.00     0.039 A 
ATOM     16  C18 <0> d   1      -1.976   1.163   1.348  0.00  0.00     0.069 A 
ATOM     17  C17 <0> d   1      -2.680   1.570   2.469  0.00  0.00     0.052 A 
BRANCH  13  18
ATOM     18  O3  <0> d   1      -5.911  -0.019   1.826  0.00  0.00    -0.355 OA
ATOM     19  C22 <0> d   1      -6.468  -0.846   0.803  0.00  0.00     0.210 C 
ENDBRANCH  13  18
BRANCH  16  20
ATOM     20  O4  <0> d   1      -0.682   1.547   1.184  0.00  0.00    -0.356 OA
ATOM     21  C23 <0> d   1      -0.013   1.086   0.008  0.00  0.00     0.210 C 
ENDBRANCH  16  20
ENDBRANCH  10  12
BRANCH   1  22
ATOM     22  C6  <0> d   1      -7.373   1.692   8.220  0.00  0.00     0.279 C 
BRANCH  22  23
ATOM     23  N2  <0> d   1      -6.336   1.504   9.243  0.00  0.00    -0.064 N 
ATOM     24  C3  <0> d   1      -6.837   0.684  10.355  0.00  0.00     0.265 C 
ATOM     25  C2  <0> d   1      -5.756   0.577  11.434  0.00  0.00     0.299 C 
ATOM     26  N1  <0> d   1      -4.543  -0.014  10.852  0.00  0.00     0.087 N 
ATOM     27  C1  <0> d   1      -3.506  -0.202  11.875  0.00  0.00     0.310 C 
ATOM     28  C5  <0> d   1      -4.042   0.807   9.740  0.00  0.00     0.299 C 
ATOM     29  C4  <0> d   1      -5.123   0.913   8.661  0.00  0.00     0.265 C 
ATOM     30  H27 <0> d   1      -6.074   2.494   9.643  0.00  0.00     0.280 HD
ENDBRANCH  22  23
ENDBRANCH   1  22
BRANCH   2  31
ATOM     31  O5  <0> d   1      -7.903   4.440   8.538  0.00  0.00    -0.360 OA
ATOM     32  H26 <0> d   1      -8.136   5.501   8.708  0.00  0.00     0.217 HD
ENDBRANCH   2  31
TORSDOF 6
