REMARK  7 active torsions:
REMARK  status: ('A' for Active; 'I' for Inactive)
REMARK    1  A    between atoms: C2_2  and  O1_3 
REMARK    2  A    between atoms: O1_3  and  C3_4 
REMARK    3  A    between atoms: C8_9  and  O2_10 
REMARK    4  A    between atoms: O2_10  and  C9_11 
REMARK    5  A    between atoms: C12_15  and  C18_23 
REMARK    6  A    between atoms: C17_21  and  O5_22 
REMARK    7  A    between atoms: C18_23  and  N1_24 
ROOT
ATOM      1  C9  <0> d   1       2.529  -1.958  -4.528  0.00  0.00     0.132 A 
ATOM      2  C10 <0> d   1       2.582  -3.292  -4.768  0.00  0.00     0.182 A 
ATOM      3  O3  <0> d   1       3.155  -3.789  -5.870  0.00  0.00    -0.318 OA
ATOM      4  C11 <0> d   1       3.711  -2.984  -6.798  0.00  0.00     0.099 A 
ATOM      5  C12 <0> d   1       4.299  -3.514  -7.931  0.00  0.00     0.041 A 
ATOM      6  C13 <0> d   1       4.868  -2.659  -8.880  0.00  0.00     0.118 A 
ATOM      7  O4  <0> d   1       5.436  -3.168  -9.974  0.00  0.00    -0.191 OA
ATOM      8  C14 <0> d   1       4.844  -1.265  -8.687  0.00  0.00     0.041 A 
ATOM      9  C15 <0> d   1       4.269  -0.735  -7.577  0.00  0.00     0.020 A 
ATOM     10  C16 <0> d   1       3.692  -1.582  -6.614  0.00  0.00     0.035 A 
ATOM     11  C17 <0> d   1       3.082  -1.056  -5.454  0.00  0.00     0.114 A 
ENDROOT
BRANCH   1  12
ATOM     12  O2  <0> d   1       1.937  -1.492  -3.394  0.00  0.00    -0.303 OA
BRANCH  12  13
ATOM     13  C8  <0> d   1       2.725  -0.896  -2.461  0.00  0.00     0.109 A 
ATOM     14  C3  <0> d   1       2.151  -0.296  -1.343  0.00  0.00     0.102 A 
ATOM     15  C4  <0> d   1       2.959   0.305  -0.392  0.00  0.00     0.039 A 
ATOM     16  C5  <0> d   1       4.332   0.312  -0.556  0.00  0.00     0.003 A 
ATOM     17  C6  <0> d   1       4.902  -0.279  -1.668  0.00  0.00     0.003 A 
ATOM     18  C7  <0> d   1       4.101  -0.880  -2.622  0.00  0.00     0.040 A 
BRANCH  14  19
ATOM     19  O1  <0> d   1       0.801  -0.305  -1.183  0.00  0.00    -0.349 OA
BRANCH  19  20
ATOM     20  C2  <0> d   1       0.282   0.330  -0.013  0.00  0.00     0.171 C 
ATOM     21  C1  <0> d   1      -1.244   0.219  -0.006  0.00  0.00     0.034 C 
ENDBRANCH  19  20
ENDBRANCH  14  19
ENDBRANCH  12  13
ENDBRANCH   1  12
BRANCH  11  22
ATOM     22  O5  <0> d   1       3.037   0.277  -5.238  0.00  0.00    -0.357 OA
ATOM     23  H23 <0> d   1       2.600   0.526  -4.412  0.00  0.00     0.217 HD
ENDBRANCH  11  22
BRANCH   5  24
ATOM     24  C18 <0> d   1       4.327  -5.005  -8.143  0.00  0.00     0.317 C 
BRANCH  24  25
ATOM     25  N1  <0> d   1       3.186  -5.404  -8.977  0.00  0.00     0.097 N 
ATOM     26  C22 <0> d   1       3.307  -6.806  -9.402  0.00  0.00     0.299 C 
ATOM     27  C21 <0> d   1       2.131  -7.160 -10.315  0.00  0.00     0.198 C 
ATOM     28  O6  <0> d   1       0.904  -6.908  -9.624  0.00  0.00    -0.388 OA
ATOM     29  C20 <0> d   1       0.753  -5.552  -9.196  0.00  0.00     0.198 C 
ATOM     30  C19 <0> d   1       1.915  -5.181  -8.272  0.00  0.00     0.299 C 
ENDBRANCH  24  25
ENDBRANCH   5  24
TORSDOF 7
