REMARK  6 active torsions:
REMARK  status: ('A' for Active; 'I' for Inactive)
REMARK    1  A    between atoms: C3_4  and  C10_11 
REMARK    2  A    between atoms: C16_18  and  O3_32 
REMARK    3  A    between atoms: C17_19  and  C19_22 
REMARK    4  A    between atoms: C19_22  and  N2_23 
REMARK    5  A    between atoms: N2_23  and  C21_25 
REMARK    6  A    between atoms: C21_25  and  C22_26 
ROOT
ATOM      1  C10 <0> d   1       0.039  -3.250  -1.666  0.00  0.00     0.055 C 
ATOM      2  C11 <0> d   1       0.031  -3.056  -3.014  0.00  0.00     0.128 A 
ATOM      3  C12 <0> d   1       0.035  -4.078  -4.000  0.00  0.00     0.218 A 
ATOM      4  O1  <0> d   1       0.046  -5.284  -3.817  0.00  0.00    -0.284 OA
ATOM      5  C13 <0> d   1       0.021  -3.369  -5.291  0.00  0.00     0.051 A 
ATOM      6  C14 <0> d   1       0.018  -3.793  -6.620  0.00  0.00     0.021 A 
ATOM      7  C15 <0> d   1       0.005  -2.871  -7.628  0.00  0.00     0.038 A 
ATOM      8  C16 <0> d   1      -0.005  -1.510  -7.334  0.00  0.00     0.076 A 
ATOM      9  C17 <0> d   1      -0.002  -1.075  -6.019  0.00  0.00     0.038 A 
ATOM     10  C18 <0> d   1       0.011  -1.999  -4.983  0.00  0.00     0.101 A 
ATOM     11  O2  <0> d   1       0.011  -1.855  -3.640  0.00  0.00    -0.305 OA
ENDROOT
BRANCH   1  12
ATOM     12  C3  <0> d   1       0.028  -2.102  -0.762  0.00  0.00    -0.005 A 
ATOM     13  C2  <0> d   1       0.008  -0.770  -1.117  0.00  0.00     0.103 A 
ATOM     14  N1  <0> d   1       0.002  -0.004   0.002  0.00  0.00    -0.360 N 
ATOM     15  C1  <0> d   1      -0.018   1.461   0.010  0.00  0.00     0.156 C 
ATOM     16  C5  <0> d   1       0.024  -0.796   1.132  0.00  0.00     0.045 A 
ATOM     17  C4  <0> d   1       0.035  -2.136   0.714  0.00  0.00     0.002 A 
ATOM     18  C6  <0> d   1       0.032  -0.507   2.493  0.00  0.00     0.030 A 
ATOM     19  C9  <0> d   1       0.053  -3.162   1.655  0.00  0.00     0.014 A 
ATOM     20  C8  <0> d   1       0.070  -2.855   2.998  0.00  0.00     0.001 A 
ATOM     21  C7  <0> d   1       0.055  -1.532   3.414  0.00  0.00     0.002 A 
ENDBRANCH   1  12
BRANCH   9  22
ATOM     22  C19 <0> d   1      -0.013   0.401  -5.713  0.00  0.00     0.316 C 
BRANCH  22  23
ATOM     23  N2  <0> d   1      -1.401   0.869  -5.607  0.00  0.00     0.092 N 
ATOM     24  C20 <0> d   1      -2.088   0.776  -6.902  0.00  0.00     0.310 C 
BRANCH  23  25
ATOM     25  C21 <0> d   1      -1.456   2.239  -5.080  0.00  0.00     0.310 C 
BRANCH  25  26
ATOM     26  C22 <0> d   1      -2.883   2.596  -4.754  0.00  0.00    -0.030 A 
ATOM     27  C27 <0> d   1      -3.390   2.337  -3.494  0.00  0.00     0.009 A 
ATOM     28  C26 <0> d   1      -4.698   2.668  -3.194  0.00  0.00     0.001 A 
ATOM     29  C25 <0> d   1      -5.503   3.249  -4.157  0.00  0.00     0.000 A 
ATOM     30  C24 <0> d   1      -4.997   3.502  -5.418  0.00  0.00     0.001 A 
ATOM     31  C23 <0> d   1      -3.688   3.176  -5.717  0.00  0.00     0.009 A 
ENDBRANCH  25  26
ENDBRANCH  23  25
ENDBRANCH  22  23
ENDBRANCH   9  22
BRANCH   8  32
ATOM     32  O3  <0> d   1      -0.017  -0.603  -8.344  0.00  0.00    -0.360 OA
ATOM     33  H24 <0> d   1      -0.904  -0.348  -8.632  0.00  0.00     0.217 HD
ENDBRANCH   8  32
TORSDOF 6
