REMARK  5 active torsions:
REMARK  status: ('A' for Active; 'I' for Inactive)
REMARK    1  A    between atoms: C2_2  and  C3_3 
REMARK    2  A    between atoms: C5_5  and  C9_11 
REMARK    3  A    between atoms: C6_6  and  O2_10 
REMARK    4  A    between atoms: C8_8  and  O1_9 
REMARK    5  A    between atoms: C10_12  and  C12_17 
ROOT
ATOM      1  C9  <0> d   1      -4.231  -2.105  -1.731  0.00  0.00     0.078 A 
ATOM      2  C10 <0> d   1      -5.093  -1.479  -2.630  0.00  0.00     0.058 A 
ATOM      3  C11 <0> d   1      -5.158  -2.293  -3.778  0.00  0.00     0.156 A 
ATOM      4  N1  <0> d   1      -4.394  -3.335  -3.591  0.00  0.00    -0.186 NA
ATOM      5  N2  <0> d   1      -3.797  -3.247  -2.329  0.00  0.00    -0.277 N 
ATOM      6  H1  <0> d   1      -3.181  -3.891  -1.945  0.00  0.00     0.189 HD
ENDROOT
BRANCH   1   7
ATOM      7  C5  <0> d   1      -3.856  -1.618  -0.390  0.00  0.00     0.027 A 
ATOM      8  C4  <0> d   1      -2.537  -1.248  -0.122  0.00  0.00     0.026 A 
ATOM      9  C3  <0> d   1      -2.190  -0.793   1.132  0.00  0.00    -0.024 A 
ATOM     10  C8  <0> d   1      -3.149  -0.706   2.134  0.00  0.00     0.074 A 
ATOM     11  C7  <0> d   1      -4.464  -1.066   1.876  0.00  0.00     0.074 A 
ATOM     12  C6  <0> d   1      -4.824  -1.524   0.621  0.00  0.00     0.081 A 
BRANCH   9  13
ATOM     13  C2  <0> d   1      -0.765  -0.396   1.419  0.00  0.00     0.037 C 
ATOM     14  C1  <0> d   1      -0.639   1.128   1.357  0.00  0.00     0.010 C 
ENDBRANCH   9  13
BRANCH  10  15
ATOM     15  O1  <0> d   1      -2.799  -0.262   3.369  0.00  0.00    -0.360 OA
ATOM     16  H9  <0> d   1      -2.879   0.695   3.480  0.00  0.00     0.217 HD
ENDBRANCH  10  15
BRANCH  12  17
ATOM     17  O2  <0> d   1      -6.109  -1.881   0.368  0.00  0.00    -0.360 OA
ATOM     18  H10 <0> d   1      -6.301  -2.812   0.545  0.00  0.00     0.217 HD
ENDBRANCH  12  17
ENDBRANCH   1   7
BRANCH   2  19
ATOM     19  C12 <0> d   1      -5.803  -0.204  -2.418  0.00  0.00     0.144 A 
ATOM     20  N4  <0> d   1      -7.133   0.009  -2.670  0.00  0.00    -0.333 N 
ATOM     21  C18 <0> d   1      -7.406   1.323  -2.339  0.00  0.00     0.064 A 
ATOM     22  C19 <0> d   1      -8.087  -0.974  -3.190  0.00  0.00     0.158 C 
ATOM     23  C13 <0> d   1      -6.193   1.877  -1.895  0.00  0.00     0.086 A 
ATOM     24  C17 <0> d   1      -8.552   2.105  -2.373  0.00  0.00     0.032 A 
ATOM     25  N3  <0> d   1      -5.256   0.900  -1.966  0.00  0.00    -0.228 NA
ATOM     26  C14 <0> d   1      -6.155   3.216  -1.491  0.00  0.00     0.034 A 
ATOM     27  C15 <0> d   1      -7.302   3.975  -1.532  0.00  0.00     0.002 A 
ATOM     28  C16 <0> d   1      -8.497   3.423  -1.972  0.00  0.00     0.002 A 
ENDBRANCH   2  19
TORSDOF 5
