REMARK  5 active torsions:
REMARK  status: ('A' for Active; 'I' for Inactive)
REMARK    1  A    between atoms: C11_11  and  C14_16 
REMARK    2  A    between atoms: C14_16  and  N1_17 
REMARK    3  A    between atoms: N2_20  and  C19_23 
REMARK    4  A    between atoms: C19_23  and  C20_24 
REMARK    5  A    between atoms: C20_24  and  O3_25 
ROOT
ATOM      1  C1  <0> d   1       7.451   4.575  -3.253  0.00  0.00     0.001 C 
ATOM      2  C2  <0> d   1       6.268   3.958  -3.644  0.00  0.00     0.001 C 
ATOM      3  C3  <0> d   1       5.180   3.938  -2.819  0.00  0.00     0.013 C 
ATOM      4  C4  <0> d   1       5.226   4.558  -1.570  0.00  0.00    -0.012 C 
ATOM      5  C5  <0> d   1       6.381   5.323  -1.250  0.00  0.00    -0.025 C 
ATOM      6  C6  <0> d   1       7.519   5.243  -2.068  0.00  0.00     0.012 C 
ATOM      7  C7  <0> d   1       6.354   6.193  -0.143  0.00  0.00     0.015 C 
ATOM      8  C8  <0> d   1       5.273   6.242   0.672  0.00  0.00     0.039 C 
ATOM      9  C9  <0> d   1       4.188   5.380   0.497  0.00  0.00     0.091 C 
ATOM     10  C10 <0> d   1       4.177   4.452  -0.560  0.00  0.00     0.017 C 
ATOM     11  C11 <0> d   1       3.203   3.431  -0.528  0.00  0.00    -0.010 C 
ATOM     12  C12 <0> d   1       2.134   3.563   0.312  0.00  0.00     0.092 C 
ATOM     13  C13 <0> d   1       2.072   4.657   1.196  0.00  0.00     0.288 C 
ATOM     14  O1  <0> d   1       1.067   4.851   1.853  0.00  0.00    -0.260 OA
ATOM     15  O2  <0> d   1       3.128   5.474   1.329  0.00  0.00    -0.275 OA
ENDROOT
BRANCH  11  16
ATOM     16  C14 <0> d   1       3.321   2.155  -1.321  0.00  0.00     0.312 C 
BRANCH  16  17
ATOM     17  N1  <0> d   1       2.760   2.360  -2.664  0.00  0.00     0.096 N 
ATOM     18  C18 <0> d   1       3.067   1.222  -3.542  0.00  0.00     0.303 C 
ATOM     19  C17 <0> d   1       2.536   1.509  -4.948  0.00  0.00     0.302 C 
ATOM     20  N2  <0> d   1       1.087   1.744  -4.883  0.00  0.00     0.093 N 
ATOM     21  C16 <0> d   1       0.779   2.881  -4.005  0.00  0.00     0.302 C 
ATOM     22  C15 <0> d   1       1.311   2.595  -2.599  0.00  0.00     0.303 C 
BRANCH  20  23
ATOM     23  C19 <0> d   1       0.526   1.949  -6.225  0.00  0.00     0.298 C 
BRANCH  23  24
ATOM     24  C20 <0> d   1       0.426   0.604  -6.947  0.00  0.00     0.194 C 
BRANCH  24  25
ATOM     25  O3  <0> d   1      -0.518  -0.230  -6.272  0.00  0.00    -0.399 OA
ATOM     26  H22 <0> d   1      -0.724  -1.243  -6.648  0.00  0.00     0.209 HD
ENDBRANCH  24  25
ENDBRANCH  23  24
ENDBRANCH  20  23
ENDBRANCH  16  17
ENDBRANCH  11  16
TORSDOF 5
