REMARK  9 active torsions:
REMARK  status: ('A' for Active; 'I' for Inactive)
REMARK    1  A    between atoms: C2_2  and  C4_4 
REMARK    2  A    between atoms: C4_4  and  O1_5 
REMARK    3  A    between atoms: O1_5  and  C5_6 
REMARK    4  A    between atoms: C11_12  and  C20_23 
REMARK    5  A    between atoms: C12_13  and  C13_15 
REMARK    6  A    between atoms: C16_18  and  O3_21 
REMARK       I    between atoms: C20_23  and  N1_25 
REMARK    7  A    between atoms: N1_25  and  C21_26 
REMARK    8  A    between atoms: C21_26  and  C22_27 
REMARK    9  A    between atoms: C22_27  and  N2_28 
ROOT
ATOM      1  C5  <0> d   1      -0.148   1.182   2.380  0.00  0.00     0.070 A 
ATOM      2  C6  <0> d   1       0.998   0.395   2.419  0.00  0.00     0.039 A 
ATOM      3  C7  <0> d   1       1.549   0.017   3.625  0.00  0.00     0.041 A 
ATOM      4  C8  <0> d   1       0.962   0.423   4.817  0.00  0.00     0.087 A 
ATOM      5  C9  <0> d   1      -0.193   1.217   4.778  0.00  0.00     0.019 A 
ATOM      6  C10 <0> d   1      -0.743   1.599   3.557  0.00  0.00     0.052 A 
ATOM      7  C11 <0> d   1      -0.554   1.468   6.186  0.00  0.00     0.079 A 
ATOM      8  C12 <0> d   1       0.407   0.809   6.937  0.00  0.00     0.103 A 
ATOM      9  O2  <0> d   1       1.279   0.207   6.112  0.00  0.00    -0.308 OA
ENDROOT
BRANCH   7  10
ATOM     10  C20 <0> d   1      -1.690   2.249   6.686  0.00  0.00     0.255 C 
ATOM     11  O4  <0> d   1      -1.564   3.442   6.893  0.00  0.00    -0.268 OA
ATOM     12  N1  <0> d   1      -2.873   1.647   6.918  0.00  0.00    -0.355 N 
ATOM     13  H18 <0> d   1      -2.987   0.569   6.731  0.00  0.00     0.162 HD
BRANCH  12  14
ATOM     14  C21 <0> d   1      -4.007   2.428   7.417  0.00  0.00     0.150 C 
BRANCH  14  15
ATOM     15  C22 <0> d   1      -5.220   1.511   7.593  0.00  0.00     0.254 C 
BRANCH  15  16
ATOM     16  N2  <0> d   1      -6.357   2.294   8.093  0.00  0.00    -0.066 N 
ATOM     17  C26 <0> d   1      -7.598   1.507   8.051  0.00  0.00     0.261 C 
ATOM     18  C25 <0> d   1      -8.765   2.377   8.524  0.00  0.00     0.195 C 
ATOM     19  O5  <0> d   1      -8.483   2.872   9.835  0.00  0.00    -0.388 OA
ATOM     20  C24 <0> d   1      -7.281   3.644   9.913  0.00  0.00     0.195 C 
ATOM     21  C23 <0> d   1      -6.099   2.786   9.454  0.00  0.00     0.261 C 
ATOM     22  H31 <0> d   1      -6.482   3.164   7.433  0.00  0.00     0.280 HD
ENDBRANCH  15  16
ENDBRANCH  14  15
ENDBRANCH  12  14
ENDBRANCH   7  10
BRANCH   8  23
ATOM     23  C13 <0> d   1       0.463   0.774   8.410  0.00  0.00    -0.001 A 
ATOM     24  C18 <0> d   1       1.485   0.072   9.056  0.00  0.00     0.017 A 
ATOM     25  C17 <0> d   1       1.533   0.042  10.432  0.00  0.00     0.037 A 
ATOM     26  C16 <0> d   1       0.567   0.707  11.178  0.00  0.00     0.068 A 
ATOM     27  C15 <0> d   1      -0.451   1.406  10.540  0.00  0.00     0.037 A 
ATOM     28  C14 <0> d   1      -0.503   1.447   9.164  0.00  0.00     0.017 A 
BRANCH  26  29
ATOM     29  O3  <0> d   1       0.619   0.675  12.534  0.00  0.00    -0.356 OA
ATOM     30  C19 <0> d   1      -0.405   1.380  13.239  0.00  0.00     0.210 C 
ENDBRANCH  26  29
ENDBRANCH   8  23
BRANCH   1  31
ATOM     31  O1  <0> d   1      -0.682   1.547   1.184  0.00  0.00    -0.347 OA
BRANCH  31  32
ATOM     32  C4  <0> d   1      -0.013   1.086   0.008  0.00  0.00     0.208 C 
BRANCH  32  33
ATOM     33  C2  <0> d   1      -0.742   1.585  -1.213  0.00  0.00    -0.069 C 
ATOM     34  C1  <0> d   1      -0.235   1.235  -2.588  0.00  0.00     0.044 C 
ATOM     35  C3  <0> d   1      -1.816   2.323  -1.079  0.00  0.00     0.016 C 
ENDBRANCH  32  33
ENDBRANCH  31  32
ENDBRANCH   1  31
TORSDOF 9
