REMARK  3 active torsions:
REMARK  status: ('A' for Active; 'I' for Inactive)
REMARK    1  A    between atoms: N2_5  and  C6_8 
REMARK    2  A    between atoms: C6_8  and  C7_9 
REMARK    3  A    between atoms: C13_17  and  O3_20 
ROOT
ATOM      1  C7  <0> d   1       1.130  -2.382   0.039  0.00  0.00    -0.014 A 
ATOM      2  C8  <0> d   1       0.824  -1.151  -0.442  0.00  0.00     0.092 A 
ATOM      3  C9  <0> d   1      -0.503  -0.675  -0.358  0.00  0.00     0.288 A 
ATOM      4  O1  <0> d   1      -0.764   0.432  -0.794  0.00  0.00    -0.260 OA
ATOM      5  O2  <0> d   1      -1.482  -1.411   0.188  0.00  0.00    -0.275 OA
ATOM      6  C10 <0> d   1      -1.245  -2.644   0.686  0.00  0.00     0.090 A 
ATOM      7  C11 <0> d   1       0.054  -3.180   0.635  0.00  0.00     0.009 A 
ATOM      8  C12 <0> d   1       0.304  -4.456   1.148  0.00  0.00     0.051 A 
ATOM      9  C13 <0> d   1      -0.731  -5.183   1.703  0.00  0.00     0.066 A 
ATOM     10  C14 <0> d   1      -2.015  -4.648   1.752  0.00  0.00     0.039 A 
ATOM     11  C15 <0> d   1      -2.272  -3.390   1.248  0.00  0.00     0.041 A 
ENDROOT
BRANCH   1  12
ATOM     12  C6  <0> d   1       2.538  -2.915  -0.037  0.00  0.00     0.274 C 
BRANCH  12  13
ATOM     13  N2  <0> d   1       3.154  -2.863   1.295  0.00  0.00    -0.064 N 
ATOM     14  C3  <0> d   1       4.361  -3.700   1.350  0.00  0.00     0.265 C 
ATOM     15  C2  <0> d   1       4.926  -3.682   2.772  0.00  0.00     0.299 C 
ATOM     16  N1  <0> d   1       5.231  -2.297   3.158  0.00  0.00     0.087 N 
ATOM     17  C1  <0> d   1       5.848  -2.246   4.490  0.00  0.00     0.310 C 
ATOM     18  C5  <0> d   1       4.025  -1.460   3.103  0.00  0.00     0.299 C 
ATOM     19  C4  <0> d   1       3.459  -1.478   1.681  0.00  0.00     0.265 C 
ATOM     20  H19 <0> d   1       2.429  -3.265   2.018  0.00  0.00     0.280 HD
ENDBRANCH  12  13
ENDBRANCH   1  12
BRANCH   9  21
ATOM     21  O3  <0> d   1      -0.495  -6.425   2.203  0.00  0.00    -0.361 OA
ATOM     22  H18 <0> d   1      -1.319  -7.005   2.646  0.00  0.00     0.217 HD
ENDBRANCH   9  21
TORSDOF 3
