REMARK  7 active torsions:
REMARK  status: ('A' for Active; 'I' for Inactive)
REMARK    1  A    between atoms: C3_3  and  C19_24 
REMARK    2  A    between atoms: C8_9  and  O3_13 
REMARK    3  A    between atoms: O3_13  and  C11_14 
REMARK    4  A    between atoms: C11_14  and  C12_15 
REMARK    5  A    between atoms: C12_15  and  N1_16 
REMARK    6  A    between atoms: C22_27  and  O6_32 
REMARK    7  A    between atoms: C23_28  and  O5_30 
ROOT
ATOM      1  C1  <0> d   1      -0.018   1.503   0.010  0.00  0.00     0.077 C 
ATOM      2  C2  <0> d   1       0.002  -0.004   0.002  0.00  0.00     0.065 C 
ATOM      3  C3  <0> d   1      -1.182  -0.671   0.004  0.00  0.00     0.055 C 
ATOM      4  C4  <0> d   1      -1.150  -2.146   0.013  0.00  0.00     0.198 C 
ATOM      5  O1  <0> d   1      -2.144  -2.815  -0.209  0.00  0.00    -0.286 OA
ATOM      6  C5  <0> d   1       0.158  -2.762   0.307  0.00  0.00     0.049 A 
ATOM      7  C6  <0> d   1       0.273  -4.122   0.597  0.00  0.00     0.021 A 
ATOM      8  C7  <0> d   1       1.501  -4.653   0.870  0.00  0.00     0.038 A 
ATOM      9  C8  <0> d   1       2.635  -3.844   0.861  0.00  0.00     0.071 A 
ATOM     10  C9  <0> d   1       2.536  -2.493   0.573  0.00  0.00     0.075 A 
ATOM     11  C10 <0> d   1       1.296  -1.937   0.289  0.00  0.00     0.092 A 
ATOM     12  O2  <0> d   1       1.182  -0.627  -0.013  0.00  0.00    -0.313 OA
ENDROOT
BRANCH   9  13
ATOM     13  O3  <0> d   1       3.849  -4.384   1.137  0.00  0.00    -0.349 OA
BRANCH  13  14
ATOM     14  C11 <0> d   1       3.886  -5.783   1.426  0.00  0.00     0.203 C 
BRANCH  14  15
ATOM     15  C12 <0> d   1       5.328  -6.208   1.710  0.00  0.00     0.261 C 
BRANCH  15  16
ATOM     16  N1  <0> d   1       5.801  -5.546   2.933  0.00  0.00    -0.064 N 
ATOM     17  C16 <0> d   1       7.222  -5.859   3.141  0.00  0.00     0.266 C 
ATOM     18  C15 <0> d   1       7.713  -5.167   4.415  0.00  0.00     0.143 C 
ATOM     19  O4  <0> d   1       6.914  -5.595   5.521  0.00  0.00    -0.378 OA
ATOM     20  C17 <0> d   1       9.176  -5.538   4.668  0.00  0.00     0.041 C 
ATOM     21  C14 <0> d   1       5.518  -5.334   5.356  0.00  0.00     0.143 C 
ATOM     22  C13 <0> d   1       5.022  -6.025   4.083  0.00  0.00     0.266 C 
ATOM     23  C18 <0> d   1       4.749  -5.874   6.563  0.00  0.00     0.041 C 
ATOM     24  H32 <0> d   1       5.686  -4.548   2.841  0.00  0.00     0.280 HD
ENDBRANCH  15  16
ENDBRANCH  14  15
ENDBRANCH  13  14
ENDBRANCH   9  13
BRANCH   3  25
ATOM     25  C19 <0> d   1      -2.470   0.064  -0.002  0.00  0.00    -0.017 A 
ATOM     26  C24 <0> d   1      -3.328  -0.040  -1.096  0.00  0.00     0.052 A 
ATOM     27  C23 <0> d   1      -4.531   0.643  -1.095  0.00  0.00     0.102 A 
ATOM     28  C22 <0> d   1      -4.878   1.439  -0.007  0.00  0.00     0.101 A 
ATOM     29  C21 <0> d   1      -4.022   1.546   1.078  0.00  0.00     0.040 A 
ATOM     30  C20 <0> d   1      -2.823   0.863   1.084  0.00  0.00     0.015 A 
BRANCH  27  31
ATOM     31  O5  <0> d   1      -5.372   0.539  -2.159  0.00  0.00    -0.353 OA
ATOM     32  C25 <0> d   1      -4.952  -0.295  -3.240  0.00  0.00     0.210 C 
ENDBRANCH  27  31
BRANCH  28  33
ATOM     33  O6  <0> d   1      -6.060   2.114  -0.009  0.00  0.00    -0.353 OA
ATOM     34  C26 <0> d   1      -6.353   2.912   1.139  0.00  0.00     0.210 C 
ENDBRANCH  28  33
ENDBRANCH   3  25
TORSDOF 7
