REMARK  6 active torsions:
REMARK  status: ('A' for Active; 'I' for Inactive)
REMARK    1  A    between atoms: C2_2  and  O1_3 
REMARK    2  A    between atoms: O1_3  and  C3_4 
REMARK    3  A    between atoms: C6_7  and  C9_10 
REMARK    4  A    between atoms: C15_17  and  O4_29 
REMARK    5  A    between atoms: C16_18  and  C18_21 
REMARK    6  A    between atoms: C18_21  and  N1_22 
ROOT
ATOM      1  C9  <0> d   1       1.949  -1.608  -0.026  0.00  0.00     0.053 C 
ATOM      2  C10 <0> d   1       1.428  -0.354  -0.037  0.00  0.00     0.127 A 
ATOM      3  C11 <0> d   1      -0.001  -0.007  -0.027  0.00  0.00     0.218 A 
ATOM      4  O2  <0> d   1      -0.953  -0.768  -0.005  0.00  0.00    -0.284 OA
ATOM      5  C12 <0> d   1      -0.023   1.467  -0.048  0.00  0.00     0.051 A 
ATOM      6  C13 <0> d   1      -1.056   2.406  -0.045  0.00  0.00     0.021 A 
ATOM      7  C14 <0> d   1      -0.763   3.740  -0.071  0.00  0.00     0.038 A 
ATOM      8  C15 <0> d   1       0.563   4.164  -0.091  0.00  0.00     0.076 A 
ATOM      9  C16 <0> d   1       1.598   3.244  -0.090  0.00  0.00     0.038 A 
ATOM     10  C17 <0> d   1       1.317   1.883  -0.068  0.00  0.00     0.101 A 
ATOM     11  O3  <0> d   1       2.130   0.803  -0.061  0.00  0.00    -0.305 OA
ENDROOT
BRANCH   1  12
ATOM     12  C6  <0> d   1       3.398  -1.802  -0.151  0.00  0.00    -0.033 A 
ATOM     13  C5  <0> d   1       4.258  -0.695  -0.153  0.00  0.00     0.014 A 
ATOM     14  C4  <0> d   1       5.616  -0.883  -0.272  0.00  0.00     0.037 A 
ATOM     15  C3  <0> d   1       6.136  -2.167  -0.389  0.00  0.00     0.068 A 
ATOM     16  C8  <0> d   1       5.287  -3.269  -0.387  0.00  0.00     0.037 A 
ATOM     17  C7  <0> d   1       3.928  -3.094  -0.264  0.00  0.00     0.014 A 
BRANCH  15  18
ATOM     18  O1  <0> d   1       7.476  -2.346  -0.506  0.00  0.00    -0.352 OA
BRANCH  18  19
ATOM     19  C2  <0> d   1       7.943  -3.692  -0.623  0.00  0.00     0.171 C 
ATOM     20  C1  <0> d   1       9.468  -3.693  -0.743  0.00  0.00     0.034 C 
ENDBRANCH  18  19
ENDBRANCH  15  18
ENDBRANCH   1  12
BRANCH   9  21
ATOM     21  C18 <0> d   1       3.029   3.717  -0.112  0.00  0.00     0.317 C 
BRANCH  21  22
ATOM     22  N1  <0> d   1       3.478   3.852  -1.504  0.00  0.00     0.096 N 
ATOM     23  C22 <0> d   1       4.778   4.534  -1.575  0.00  0.00     0.300 C 
ATOM     24  C21 <0> d   1       5.172   4.725  -3.041  0.00  0.00     0.264 C 
ATOM     25  N2  <0> d   1       5.231   3.415  -3.705  0.00  0.00    -0.072 N 
ATOM     26  C20 <0> d   1       3.931   2.734  -3.635  0.00  0.00     0.264 C 
ATOM     27  C23 <0> d   1       5.680   3.550  -5.097  0.00  0.00     0.269 C 
ATOM     28  H27 <0> d   1       5.968   2.797  -3.172  0.00  0.00     0.279 HD
ATOM     29  C19 <0> d   1       3.536   2.543  -2.168  0.00  0.00     0.300 C 
ENDBRANCH  21  22
ENDBRANCH   9  21
BRANCH   8  30
ATOM     30  O4  <0> d   1       0.844   5.492  -0.113  0.00  0.00    -0.360 OA
ATOM     31  H26 <0> d   1       1.890   5.833  -0.129  0.00  0.00     0.217 HD
ENDBRANCH   8  30
TORSDOF 6
