REMARK  6 active torsions:
REMARK  status: ('A' for Active; 'I' for Inactive)
REMARK    1  A    between atoms: C3_3  and  O4_21 
REMARK    2  A    between atoms: C9_10  and  C11_13 
REMARK    3  A    between atoms: C14_16  and  O3_19 
REMARK    4  A    between atoms: O4_21  and  C18_22 
REMARK    5  A    between atoms: C18_22  and  C19_23 
REMARK    6  A    between atoms: C19_23  and  N1_24 
ROOT
ATOM      1  C1  <0> d   1      -4.553   0.865   4.466  0.00  0.00     0.054 C 
ATOM      2  C2  <0> d   1      -3.758   1.831   5.306  0.00  0.00     0.006 A 
ATOM      3  C3  <0> d   1      -2.435   2.097   4.993  0.00  0.00     0.077 A 
ATOM      4  C4  <0> d   1      -1.691   2.992   5.759  0.00  0.00     0.038 A 
ATOM      5  C5  <0> d   1      -2.258   3.617   6.833  0.00  0.00     0.021 A 
ATOM      6  C6  <0> d   1      -3.588   3.356   7.164  0.00  0.00     0.049 A 
ATOM      7  C7  <0> d   1      -4.348   2.454   6.398  0.00  0.00     0.097 A 
ATOM      8  O1  <0> d   1      -5.632   2.203   6.719  0.00  0.00    -0.320 OA
ATOM      9  C8  <0> d   1      -6.255   2.775   7.753  0.00  0.00     0.159 A 
ATOM     10  C9  <0> d   1      -5.640   3.664   8.575  0.00  0.00     0.048 A 
ATOM     11  C10 <0> d   1      -4.233   4.012   8.316  0.00  0.00     0.197 A 
ATOM     12  O2  <0> d   1      -3.630   4.803   9.020  0.00  0.00    -0.286 OA
ENDROOT
BRANCH   3  13
ATOM     13  O4  <0> d   1      -1.860   1.484   3.928  0.00  0.00    -0.349 OA
BRANCH  13  14
ATOM     14  C18 <0> d   1      -0.494   1.805   3.654  0.00  0.00     0.206 C 
BRANCH  14  15
ATOM     15  C19 <0> d   1      -0.023   1.023   2.426  0.00  0.00     0.299 C 
BRANCH  15  16
ATOM     16  N1  <0> d   1      -0.795   1.445   1.250  0.00  0.00     0.091 N 
ATOM     17  C24 <0> d   1      -0.746   2.917   1.089  0.00  0.00     0.283 C 
ATOM     18  C23 <0> d   1      -1.710   3.298  -0.047  0.00  0.00     0.064 C 
ATOM     19  C22 <0> d   1      -1.186   2.689  -1.340  0.00  0.00     0.020 C 
ATOM     20  C25 <0> d   1      -3.055   2.685   0.273  0.00  0.00     0.020 A 
ATOM     21  C21 <0> d   1      -1.152   1.168  -1.171  0.00  0.00     0.033 C 
ATOM     22  C20 <0> d   1      -0.313   0.778   0.037  0.00  0.00     0.278 C 
ATOM     23  C30 <0> d   1      -2.577   0.651  -1.060  0.00  0.00     0.138 C 
ATOM     24  N2  <0> d   1      -3.380   1.431  -0.119  0.00  0.00    -0.317 N 
ATOM     25  C29 <0> d   1      -4.509   0.849   0.357  0.00  0.00     0.247 A 
ATOM     26  C28 <0> d   1      -5.415   1.578   1.139  0.00  0.00     0.074 A 
ATOM     27  O5  <0> d   1      -4.739  -0.322   0.101  0.00  0.00    -0.268 OA
ATOM     28  C27 <0> d   1      -5.125   2.872   1.461  0.00  0.00     0.007 A 
ATOM     29  C26 <0> d   1      -3.917   3.423   1.020  0.00  0.00     0.026 A 
ENDBRANCH  15  16
ENDBRANCH  14  15
ENDBRANCH  13  14
ENDBRANCH   3  13
BRANCH  10  30
ATOM     30  C11 <0> d   1      -6.373   4.274   9.711  0.00  0.00    -0.020 A 
ATOM     31  C16 <0> d   1      -7.624   4.852   9.506  0.00  0.00     0.015 A 
ATOM     32  C15 <0> d   1      -8.303   5.418  10.566  0.00  0.00     0.037 A 
ATOM     33  C14 <0> d   1      -7.740   5.413  11.835  0.00  0.00     0.068 A 
ATOM     34  C13 <0> d   1      -6.494   4.838  12.042  0.00  0.00     0.037 A 
ATOM     35  C12 <0> d   1      -5.813   4.264  10.988  0.00  0.00     0.015 A 
BRANCH  33  36
ATOM     36  O3  <0> d   1      -8.411   5.971  12.876  0.00  0.00    -0.356 OA
ATOM     37  C17 <0> d   1      -7.774   5.931  14.155  0.00  0.00     0.210 C 
ENDBRANCH  33  36
ENDBRANCH  10  30
TORSDOF 6
