REMARK  5 active torsions:
REMARK  status: ('A' for Active; 'I' for Inactive)
REMARK    1  A    between atoms: C2_2  and  C3_3 
REMARK    2  A    between atoms: C7_8  and  C18_23 
REMARK    3  A    between atoms: C10_12  and  C12_15 
REMARK    4  A    between atoms: C11_13  and  O3_14 
REMARK    5  A    between atoms: C12_15  and  N1_16 
ROOT
ATOM      1  C3  <0> d   1       0.077  -1.671   2.151  0.00  0.00    -0.024 A 
ATOM      2  C4  <0> d   1       1.401  -1.819   1.848  0.00  0.00     0.028 A 
ATOM      3  C5  <0> d   1       2.328  -2.003   2.873  0.00  0.00     0.050 A 
ATOM      4  C6  <0> d   1       3.764  -2.182   2.588  0.00  0.00     0.200 C 
ATOM      5  O1  <0> d   1       4.239  -1.956   1.489  0.00  0.00    -0.286 OA
ATOM      6  C7  <0> d   1       4.593  -2.652   3.718  0.00  0.00     0.083 C 
ATOM      7  C8  <0> d   1       4.048  -2.630   4.967  0.00  0.00     0.162 C 
ATOM      8  O2  <0> d   1       2.812  -2.190   5.205  0.00  0.00    -0.320 OA
ATOM      9  C9  <0> d   1       1.912  -2.029   4.216  0.00  0.00     0.100 A 
ATOM     10  C10 <0> d   1       0.562  -1.880   4.506  0.00  0.00     0.036 A 
ATOM     11  C11 <0> d   1      -0.347  -1.696   3.478  0.00  0.00     0.082 A 
ENDROOT
BRANCH   6  12
ATOM     12  C18 <0> d   1       5.971  -3.133   3.499  0.00  0.00     0.146 A 
ATOM     13  N4  <0> d   1       7.084  -2.649   4.134  0.00  0.00    -0.333 N 
ATOM     14  C24 <0> d   1       8.169  -3.360   3.656  0.00  0.00     0.064 A 
ATOM     15  C25 <0> d   1       7.118  -1.580   5.136  0.00  0.00     0.158 C 
ATOM     16  C19 <0> d   1       7.658  -4.270   2.715  0.00  0.00     0.086 A 
ATOM     17  C23 <0> d   1       9.531  -3.328   3.917  0.00  0.00     0.032 A 
ATOM     18  N3  <0> d   1       6.316  -4.084   2.664  0.00  0.00    -0.228 NA
ATOM     19  C20 <0> d   1       8.533  -5.135   2.050  0.00  0.00     0.034 A 
ATOM     20  C21 <0> d   1       9.871  -5.089   2.320  0.00  0.00     0.002 A 
ATOM     21  C22 <0> d   1      10.376  -4.190   3.249  0.00  0.00     0.002 A 
ENDBRANCH   6  12
BRANCH   1  22
ATOM     22  C2  <0> d   1      -0.929  -1.472   1.046  0.00  0.00     0.037 C 
ATOM     23  C1  <0> d   1      -1.175   0.024   0.844  0.00  0.00     0.010 C 
ENDBRANCH   1  22
BRANCH  10  24
ATOM     24  C12 <0> d   1       0.089  -1.911   5.937  0.00  0.00     0.279 C 
BRANCH  24  25
ATOM     25  N1  <0> d   1       0.105  -0.549   6.488  0.00  0.00    -0.064 N 
ATOM     26  C16 <0> d   1      -0.468  -0.562   7.840  0.00  0.00     0.265 C 
ATOM     27  C15 <0> d   1      -0.469   0.859   8.408  0.00  0.00     0.299 C 
ATOM     28  N2  <0> d   1       0.909   1.369   8.446  0.00  0.00     0.087 N 
ATOM     29  C14 <0> d   1       1.505   1.364   7.102  0.00  0.00     0.299 C 
ATOM     30  C17 <0> d   1       0.958   2.712   9.038  0.00  0.00     0.310 C 
ATOM     31  C13 <0> d   1       1.490  -0.061   6.545  0.00  0.00     0.265 C 
ATOM     32  H29 <0> d   1      -0.441   0.059   5.897  0.00  0.00     0.280 HD
ENDBRANCH  24  25
ENDBRANCH  10  24
BRANCH  11  33
ATOM     33  O3  <0> d   1      -1.665  -1.546   3.765  0.00  0.00    -0.359 OA
ATOM     34  H8  <0> d   1      -2.158  -2.377   3.796  0.00  0.00     0.217 HD
ENDBRANCH  11  33
TORSDOF 5
