REMARK  6 active torsions:
REMARK  status: ('A' for Active; 'I' for Inactive)
REMARK    1  A    between atoms: C2_2  and  C4_4 
REMARK    2  A    between atoms: C4_4  and  O1_5 
REMARK    3  A    between atoms: O1_5  and  C5_6 
REMARK    4  A    between atoms: C7_8  and  O2_9 
REMARK    5  A    between atoms: C8_10  and  C9_11 
REMARK    6  A    between atoms: C10_12  and  C13_17 
ROOT
ATOM      1  C5  <0> d   1       0.587  -2.426  -2.650  0.00  0.00     0.071 A 
ATOM      2  C6  <0> d   1       0.629  -3.768  -2.299  0.00  0.00     0.074 A 
ATOM      3  C7  <0> d   1       0.493  -4.742  -3.272  0.00  0.00     0.081 A 
ATOM      4  C8  <0> d   1       0.311  -4.370  -4.610  0.00  0.00     0.027 A 
ATOM      5  C19 <0> d   1       0.270  -3.018  -4.954  0.00  0.00     0.019 A 
ATOM      6  C20 <0> d   1       0.402  -2.055  -3.977  0.00  0.00     0.038 A 
ENDROOT
BRANCH   4   7
ATOM      7  C9  <0> d   1       0.164  -5.406  -5.655  0.00  0.00     0.083 A 
ATOM      8  N2  <0> d   1       1.044  -6.400  -5.755  0.00  0.00    -0.240 NA
ATOM      9  C12 <0> d   1       0.913  -7.326  -6.681  0.00  0.00     0.233 A 
ATOM     10  N1  <0> d   1      -0.076  -7.313  -7.553  0.00  0.00    -0.253 NA
ATOM     11  C11 <0> d   1      -0.995  -6.360  -7.533  0.00  0.00     0.132 A 
ATOM     12  C10 <0> d   1      -0.908  -5.356  -6.569  0.00  0.00     0.021 A 
BRANCH  12  13
ATOM     13  C13 <0> d   1      -1.914  -4.269  -6.508  0.00  0.00    -0.022 A 
ATOM     14  C18 <0> d   1      -2.157  -3.477  -7.628  0.00  0.00     0.012 A 
ATOM     15  C17 <0> d   1      -3.099  -2.470  -7.567  0.00  0.00     0.001 A 
ATOM     16  C16 <0> d   1      -3.793  -2.239  -6.392  0.00  0.00     0.000 A 
ATOM     17  C15 <0> d   1      -3.552  -3.019  -5.276  0.00  0.00     0.001 A 
ATOM     18  C14 <0> d   1      -2.617  -4.032  -5.327  0.00  0.00     0.012 A 
ENDBRANCH  12  13
ENDBRANCH   4   7
BRANCH   3  19
ATOM     19  O2  <0> d   1       0.534  -6.056  -2.931  0.00  0.00    -0.360 OA
ATOM     20  H18 <0> d   1      -0.330  -6.433  -2.712  0.00  0.00     0.217 HD
ENDBRANCH   3  19
BRANCH   1  21
ATOM     21  O1  <0> d   1       0.722  -1.472  -1.693  0.00  0.00    -0.347 OA
BRANCH  21  22
ATOM     22  C4  <0> d   1       0.663  -0.110  -2.123  0.00  0.00     0.208 C 
BRANCH  22  23
ATOM     23  C2  <0> d   1       0.831   0.799  -0.932  0.00  0.00    -0.069 C 
ATOM     24  C1  <0> d   1       0.807   2.295  -1.117  0.00  0.00     0.044 C 
ATOM     25  C3  <0> d   1       0.998   0.290   0.263  0.00  0.00     0.016 C 
ENDBRANCH  22  23
ENDBRANCH  21  22
ENDBRANCH   1  21
TORSDOF 6
