REMARK  10 active torsions:
REMARK  status: ('A' for Active; 'I' for Inactive)
REMARK    1  A    between atoms: C2_2  and  N1_3 
REMARK    2  A    between atoms: N2_6  and  C7_9 
REMARK    3  A    between atoms: C7_9  and  C8_10 
REMARK    4  A    between atoms: C9_11  and  O6_37 
REMARK    5  A    between atoms: C14_17  and  C26_33 
REMARK    6  A    between atoms: C15_18  and  O3_21 
REMARK    7  A    between atoms: O3_21  and  C17_22 
REMARK    8  A    between atoms: C20_25  and  C23_28 
REMARK    9  A    between atoms: C23_28  and  O5_30 
REMARK   10  A    between atoms: O5_30  and  C24_31 
ROOT
ATOM      1  C8  <0> d   1      -0.018   1.503   0.010  0.00  0.00     0.035 A 
ATOM      2  C9  <0> d   1       1.170   2.214   0.003  0.00  0.00     0.076 A 
ATOM      3  C10 <0> d   1       1.162   3.607   0.011  0.00  0.00     0.038 A 
ATOM      4  C11 <0> d   1      -0.020   4.292   0.025  0.00  0.00     0.021 A 
ATOM      5  C12 <0> d   1      -1.226   3.589   0.033  0.00  0.00     0.052 A 
ATOM      6  C13 <0> d   1      -1.228   2.183   0.020  0.00  0.00     0.101 A 
ATOM      7  O1  <0> d   1      -2.399   1.515   0.022  0.00  0.00    -0.301 OA
ATOM      8  C14 <0> d   1      -3.583   2.142   0.031  0.00  0.00     0.197 A 
ATOM      9  C15 <0> d   1      -3.697   3.485   0.039  0.00  0.00     0.165 A 
ATOM     10  C16 <0> d   1      -2.522   4.290   0.048  0.00  0.00     0.221 A 
ATOM     11  O2  <0> d   1      -2.586   5.507   0.055  0.00  0.00    -0.284 OA
ENDROOT
BRANCH   9  12
ATOM     12  O3  <0> d   1      -4.926   4.068   0.048  0.00  0.00    -0.304 OA
BRANCH  12  13
ATOM     13  C17 <0> d   1      -5.496   4.335   1.250  0.00  0.00     0.076 A 
ATOM     14  C22 <0> d   1      -6.752   4.930   1.305  0.00  0.00     0.038 A 
ATOM     15  C21 <0> d   1      -7.333   5.202   2.523  0.00  0.00     0.020 A 
ATOM     16  C20 <0> d   1      -6.660   4.879   3.705  0.00  0.00     0.039 A 
ATOM     17  C19 <0> d   1      -5.398   4.280   3.644  0.00  0.00     0.020 A 
ATOM     18  C18 <0> d   1      -4.826   4.006   2.423  0.00  0.00     0.038 A 
BRANCH  16  19
ATOM     19  C23 <0> d   1      -7.279   5.169   5.011  0.00  0.00     0.293 C 
ATOM     20  O4  <0> d   1      -8.375   5.690   5.062  0.00  0.00    -0.259 OA
BRANCH  19  21
ATOM     21  O5  <0> d   1      -6.628   4.857   6.149  0.00  0.00    -0.318 OA
BRANCH  21  22
ATOM     22  C24 <0> d   1      -7.298   5.171   7.399  0.00  0.00     0.174 C 
ATOM     23  C25 <0> d   1      -6.412   4.748   8.572  0.00  0.00     0.034 C 
ENDBRANCH  21  22
ENDBRANCH  19  21
ENDBRANCH  16  19
ENDBRANCH  12  13
ENDBRANCH   9  12
BRANCH   8  24
ATOM     24  C26 <0> d   1      -4.840   1.311   0.033  0.00  0.00     0.442 C 
ATOM     25  F1  <0> d   1      -5.235   1.060  -1.286  0.00  0.00    -0.164 F 
ATOM     26  F2  <0> d   1      -4.596   0.097   0.685  0.00  0.00    -0.164 F 
ATOM     27  F3  <0> d   1      -5.856   2.003   0.701  0.00  0.00    -0.164 F 
ENDBRANCH   8  24
BRANCH   1  28
ATOM     28  C7  <0> d   1       0.002  -0.004   0.002  0.00  0.00     0.279 C 
BRANCH  28  29
ATOM     29  N2  <0> d   1       0.022  -0.501   1.384  0.00  0.00    -0.064 N 
ATOM     30  C4  <0> d   1      -0.196  -1.954   1.425  0.00  0.00     0.265 C 
ATOM     31  C3  <0> d   1      -0.248  -2.419   2.882  0.00  0.00     0.300 C 
ATOM     32  N1  <0> d   1       1.009  -2.059   3.553  0.00  0.00     0.091 N 
ATOM     33  C6  <0> d   1       1.227  -0.606   3.513  0.00  0.00     0.300 C 
ATOM     34  C5  <0> d   1       1.279  -0.141   2.055  0.00  0.00     0.265 C 
ATOM     35  H28 <0> d   1      -0.804  -0.018   1.927  0.00  0.00     0.280 HD
BRANCH  32  36
ATOM     36  C2  <0> d   1       1.029  -2.556   4.935  0.00  0.00     0.268 C 
ATOM     37  C1  <0> d   1       2.433  -2.386   5.518  0.00  0.00     0.037 C 
ENDBRANCH  32  36
ENDBRANCH  28  29
ENDBRANCH   1  28
BRANCH   2  38
ATOM     38  O6  <0> d   1       2.353   1.548  -0.012  0.00  0.00    -0.360 OA
ATOM     39  H27 <0> d   1       3.299   2.108  -0.018  0.00  0.00     0.217 HD
ENDBRANCH   2  38
TORSDOF 10
