REMARK  8 active torsions:
REMARK  status: ('A' for Active; 'I' for Inactive)
REMARK    1  A    between atoms: C6_6  and  C7_7 
REMARK    2  A    between atoms: C11_12  and  O3_18 
REMARK    3  A    between atoms: O3_18  and  C16_19 
REMARK    4  A    between atoms: C16_19  and  C17_20 
REMARK    5  A    between atoms: C17_20  and  N1_21 
REMARK    6  A    between atoms: N2_24  and  C22_27 
REMARK    7  A    between atoms: C22_27  and  C23_28 
REMARK    8  A    between atoms: C23_28  and  O4_29 
ROOT
ATOM      1  C7  <0> d   1       0.388   0.997   7.797  0.00  0.00     0.048 A 
ATOM      2  C8  <0> d   1      -0.789   1.615   7.516  0.00  0.00     0.159 A 
ATOM      3  O1  <0> d   1      -1.195   1.854   6.267  0.00  0.00    -0.321 OA
ATOM      4  C9  <0> d   1      -0.481   1.507   5.178  0.00  0.00     0.091 A 
ATOM      5  C10 <0> d   1      -0.958   1.784   3.903  0.00  0.00     0.075 A 
ATOM      6  C11 <0> d   1      -0.212   1.420   2.795  0.00  0.00     0.071 A 
ATOM      7  C12 <0> d   1       1.012   0.773   2.945  0.00  0.00     0.038 A 
ATOM      8  C13 <0> d   1       1.498   0.498   4.191  0.00  0.00     0.021 A 
ATOM      9  C14 <0> d   1       0.758   0.859   5.318  0.00  0.00     0.049 A 
ATOM     10  C15 <0> d   1       1.249   0.574   6.679  0.00  0.00     0.197 A 
ATOM     11  O2  <0> d   1       2.315   0.014   6.870  0.00  0.00    -0.286 OA
ENDROOT
BRANCH   6  12
ATOM     12  O3  <0> d   1      -0.681   1.692   1.550  0.00  0.00    -0.349 OA
BRANCH  12  13
ATOM     13  C16 <0> d   1       0.135   1.292   0.448  0.00  0.00     0.206 C 
BRANCH  13  14
ATOM     14  C17 <0> d   1      -0.552   1.679  -0.863  0.00  0.00     0.299 C 
BRANCH  14  15
ATOM     15  N1  <0> d   1      -0.640   3.142  -0.957  0.00  0.00     0.093 N 
ATOM     16  C21 <0> d   1       0.664   3.726  -1.302  0.00  0.00     0.300 C 
ATOM     17  C20 <0> d   1       0.549   5.252  -1.312  0.00  0.00     0.265 C 
ATOM     18  N2  <0> d   1      -0.479   5.658  -2.280  0.00  0.00    -0.066 N 
ATOM     19  C19 <0> d   1      -1.783   5.074  -1.935  0.00  0.00     0.265 C 
ATOM     20  H26 <0> d   1      -0.186   5.274  -3.268  0.00  0.00     0.280 HD
ATOM     21  C18 <0> d   1      -1.668   3.547  -1.925  0.00  0.00     0.300 C 
BRANCH  18  22
ATOM     22  C22 <0> d   1      -0.567   7.121  -2.374  0.00  0.00     0.260 C 
BRANCH  22  23
ATOM     23  C23 <0> d   1       0.618   7.652  -3.185  0.00  0.00     0.192 C 
BRANCH  23  24
ATOM     24  O4  <0> d   1       0.522   7.181  -4.531  0.00  0.00    -0.399 OA
ATOM     25  H25 <0> d   1       1.290   7.462  -5.267  0.00  0.00     0.209 HD
ENDBRANCH  23  24
ENDBRANCH  22  23
ENDBRANCH  18  22
ENDBRANCH  14  15
ENDBRANCH  13  14
ENDBRANCH  12  13
ENDBRANCH   6  12
BRANCH   1  26
ATOM     26  C6  <0> d   1       0.797   0.752   9.201  0.00  0.00    -0.020 A 
ATOM     27  C1  <0> d   1       1.212  -0.519   9.597  0.00  0.00     0.014 A 
ATOM     28  C2  <0> d   1       1.597  -0.740  10.903  0.00  0.00     0.020 A 
ATOM     29  C3  <0> d   1       1.561   0.294  11.823  0.00  0.00     0.011 A 
ATOM     30  C4  <0> d   1       1.146   1.557  11.436  0.00  0.00     0.020 A 
ATOM     31 Br1  <0> d   1       2.083  -0.018  13.613  0.00  0.00    -0.051 Br
ATOM     32  C5  <0> d   1       0.763   1.790  10.130  0.00  0.00     0.014 A 
ENDBRANCH   1  26
TORSDOF 8
