REMARK  5 active torsions:
REMARK  status: ('A' for Active; 'I' for Inactive)
REMARK    1  A    between atoms: C7_8  and  C8_10 
REMARK    2  A    between atoms: C13_15  and  O3_34 
REMARK    3  A    between atoms: C14_16  and  C17_21 
REMARK    4  A    between atoms: C17_21  and  N2_22 
REMARK    5  A    between atoms: N3_25  and  C22_28 
ROOT
ATOM      1  C8  <0> d   1       2.962  -4.012  -0.045  0.00  0.00     0.076 C 
ATOM      2  C9  <0> d   1       4.293  -4.402  -0.034  0.00  0.00     0.034 C 
ATOM      3  C10 <0> d   1       4.584  -5.789  -0.068  0.00  0.00    -0.000 A 
ATOM      4  C11 <0> d   1       5.894  -6.246   0.143  0.00  0.00     0.017 A 
ATOM      5  C12 <0> d   1       6.152  -7.585   0.149  0.00  0.00     0.038 A 
ATOM      6  C13 <0> d   1       5.126  -8.505  -0.060  0.00  0.00     0.076 A 
ATOM      7  C14 <0> d   1       3.830  -8.072  -0.290  0.00  0.00     0.035 A 
ATOM      8  C15 <0> d   1       3.550  -6.715  -0.307  0.00  0.00     0.100 A 
ATOM      9  O1  <0> d   1       2.295  -6.278  -0.572  0.00  0.00    -0.273 OA
ATOM     10  C16 <0> d   1       1.944  -5.077  -0.053  0.00  0.00     0.301 C 
ATOM     11  O2  <0> d   1       0.827  -4.882   0.389  0.00  0.00    -0.259 OA
ENDROOT
BRANCH   7  12
ATOM     12  C17 <0> d   1       2.728  -9.074  -0.521  0.00  0.00     0.279 C 
BRANCH  12  13
ATOM     13  N2  <0> d   1       2.117  -9.435   0.765  0.00  0.00    -0.064 N 
ATOM     14  C21 <0> d   1       0.968 -10.318   0.528  0.00  0.00     0.255 C 
ATOM     15  C20 <0> d   1       0.261 -10.602   1.858  0.00  0.00     0.152 C 
ATOM     16  N3  <0> d   1       1.250 -11.135   2.807  0.00  0.00    -0.364 N 
ATOM     17  C19 <0> d   1       2.510 -10.396   2.984  0.00  0.00     0.152 C 
ATOM     18  C18 <0> d   1       3.110 -10.121   1.602  0.00  0.00     0.255 C 
ATOM     19  H24 <0> d   1       1.806  -8.598   1.235  0.00  0.00     0.280 HD
BRANCH  16  20
ATOM     20  C22 <0> d   1       1.002 -12.304   3.517  0.00  0.00     0.102 A 
ATOM     21  N4  <0> d   1      -0.184 -12.886   3.430  0.00  0.00    -0.352 N 
ATOM     22  C26 <0> d   1      -0.458 -13.999   4.082  0.00  0.00     0.089 A 
ATOM     23  H23 <0> d   1      -0.867 -12.486   2.869  0.00  0.00     0.166 HD
ATOM     24  C25 <0> d   1       0.486 -14.595   4.894  0.00  0.00     0.017 A 
ATOM     25  C24 <0> d   1       1.741 -14.014   5.018  0.00  0.00     0.005 A 
ATOM     26  C23 <0> d   1       2.001 -12.850   4.317  0.00  0.00     0.048 A 
ENDBRANCH  16  20
ENDBRANCH  12  13
ENDBRANCH   7  12
BRANCH   6  27
ATOM     27  O3  <0> d   1       5.399  -9.835  -0.040  0.00  0.00    -0.360 OA
ATOM     28  H22 <0> d   1       5.318 -10.239   0.835  0.00  0.00     0.217 HD
ENDBRANCH   6  27
BRANCH   1  29
ATOM     29  C7  <0> d   1       2.581  -2.587  -0.044  0.00  0.00     0.115 A 
ATOM     30  N1  <0> d   1       1.377  -2.054  -0.049  0.00  0.00    -0.239 NA
ATOM     31  C5  <0> d   1       1.175  -0.722  -0.047  0.00  0.00     0.075 A 
ATOM     32  C4  <0> d   1       2.344   0.075  -0.039  0.00  0.00     0.035 A 
ATOM     33  C6  <0> d   1      -0.056  -0.025  -0.052  0.00  0.00     0.033 A 
ATOM     34  C3  <0> d   1       2.302   1.448  -0.036  0.00  0.00     0.021 A 
ATOM     35  S1  <0> d   1       3.636  -1.144  -0.035  0.00  0.00    -0.067 SA
ATOM     36  C2  <0> d   1       1.077   2.090  -0.042  0.00  0.00     0.002 A 
ATOM     37  C1  <0> d   1      -0.087   1.335  -0.049  0.00  0.00     0.002 A 
ENDBRANCH   1  29
TORSDOF 5
