REMARK  7 active torsions:
REMARK  status: ('A' for Active; 'I' for Inactive)
REMARK    1  A    between atoms: C4_4  and  O5_32 
REMARK    2  A    between atoms: C5_5  and  C19_22 
REMARK    3  A    between atoms: C10_11  and  C11_12 
REMARK    4  A    between atoms: C19_22  and  N1_23 
REMARK    5  A    between atoms: N2_26  and  C24_29 
REMARK    6  A    between atoms: C24_29  and  C25_30 
REMARK    7  A    between atoms: C25_30  and  O4_31 
ROOT
ATOM      1  C1  <0> d   1       3.311   2.567  -0.063  0.00  0.00     0.049 C 
ATOM      2  C2  <0> d   1       2.553   1.264  -0.050  0.00  0.00    -0.042 A 
ATOM      3  C3  <0> d   1       3.231   0.078  -0.021  0.00  0.00     0.045 A 
ATOM      4  C4  <0> d   1       2.532  -1.126  -0.008  0.00  0.00     0.077 A 
ATOM      5  C5  <0> d   1       1.147  -1.138  -0.025  0.00  0.00     0.038 A 
ATOM      6  C6  <0> d   1       0.442   0.059  -0.055  0.00  0.00     0.102 A 
ATOM      7  C7  <0> d   1       1.158   1.268  -0.067  0.00  0.00     0.057 A 
ATOM      8  C8  <0> d   1       0.152   2.345  -0.098  0.00  0.00     0.219 A 
ATOM      9  O1  <0> d   1       0.348   3.548  -0.117  0.00  0.00    -0.284 OA
ATOM     10  C9  <0> d   1      -1.139   1.645  -0.102  0.00  0.00     0.129 A 
ATOM     11  C10 <0> d   1      -2.370   2.227  -0.132  0.00  0.00     0.078 C 
ATOM     12  O3  <0> d   1      -0.883   0.316  -0.076  0.00  0.00    -0.305 OA
ENDROOT
BRANCH   5  13
ATOM     13  C19 <0> d   1       0.404  -2.449  -0.011  0.00  0.00     0.317 C 
BRANCH  13  14
ATOM     14  N1  <0> d   1       0.179  -2.899  -1.391  0.00  0.00     0.096 N 
ATOM     15  C23 <0> d   1      -0.327  -4.279  -1.419  0.00  0.00     0.300 C 
ATOM     16  C22 <0> d   1      -0.472  -4.737  -2.873  0.00  0.00     0.265 C 
ATOM     17  N2  <0> d   1      -1.386  -3.829  -3.581  0.00  0.00    -0.066 N 
ATOM     18  C21 <0> d   1      -0.879  -2.450  -3.553  0.00  0.00     0.265 C 
ATOM     19  H27 <0> d   1      -2.354  -3.846  -3.059  0.00  0.00     0.280 HD
ATOM     20  C20 <0> d   1      -0.734  -1.992  -2.099  0.00  0.00     0.300 C 
BRANCH  17  21
ATOM     21  C24 <0> d   1      -1.610  -4.279  -4.961  0.00  0.00     0.260 C 
BRANCH  21  22
ATOM     22  C25 <0> d   1      -2.562  -5.477  -4.958  0.00  0.00     0.192 C 
BRANCH  22  23
ATOM     23  O4  <0> d   1      -3.843  -5.066  -4.473  0.00  0.00    -0.399 OA
ATOM     24  H25 <0> d   1      -4.662  -5.796  -4.399  0.00  0.00     0.209 HD
ENDBRANCH  22  23
ENDBRANCH  21  22
ENDBRANCH  17  21
ENDBRANCH  13  14
ENDBRANCH   5  13
BRANCH   4  25
ATOM     25  O5  <0> d   1       3.215  -2.299   0.021  0.00  0.00    -0.360 OA
ATOM     26  H26 <0> d   1       2.668  -3.253   0.032  0.00  0.00     0.217 HD
ENDBRANCH   4  25
BRANCH  11  27
ATOM     27  C11 <0> d   1      -3.534   1.422  -0.138  0.00  0.00     0.079 A 
ATOM     28  O2  <0> d   1      -3.549   0.071  -0.115  0.00  0.00    -0.310 OA
ATOM     29  C18 <0> d   1      -4.822  -0.373  -0.129  0.00  0.00     0.086 A 
ATOM     30  C13 <0> d   1      -5.665   0.754  -0.162  0.00  0.00     0.000 A 
ATOM     31  C17 <0> d   1      -5.385  -1.643  -0.117  0.00  0.00     0.038 A 
ATOM     32  C12 <0> d   1      -4.815   1.888  -0.162  0.00  0.00     0.051 A 
ATOM     33  C14 <0> d   1      -7.054   0.586  -0.183  0.00  0.00     0.014 A 
ATOM     34  C15 <0> d   1      -7.585  -0.673  -0.172  0.00  0.00     0.001 A 
ATOM     35  C16 <0> d   1      -6.756  -1.786  -0.138  0.00  0.00     0.003 A 
ENDBRANCH  11  27
TORSDOF 7
