REMARK  6 active torsions:
REMARK  status: ('A' for Active; 'I' for Inactive)
REMARK    1  A    between atoms: C4_4  and  O4_23 
REMARK    2  A    between atoms: C6_6  and  C11_13 
REMARK    3  A    between atoms: C11_13  and  N1_14 
REMARK    4  A    between atoms: N2_17  and  C16_20 
REMARK    5  A    between atoms: C16_20  and  C17_21 
REMARK    6  A    between atoms: C17_21  and  O3_22 
ROOT
ATOM      1  C1  <0> d   1      -3.259  -5.432   2.826  0.00  0.00     0.048 C 
ATOM      2  C2  <0> d   1      -2.130  -4.716   2.131  0.00  0.00    -0.057 A 
ATOM      3  C3  <0> d   1      -0.868  -5.288   2.107  0.00  0.00     0.044 A 
ATOM      4  C4  <0> d   1       0.178  -4.643   1.473  0.00  0.00     0.079 A 
ATOM      5  C5  <0> d   1      -0.048  -3.403   0.856  0.00  0.00     0.039 A 
ATOM      6  C6  <0> d   1       1.034  -2.690   0.176  0.00  0.00    -0.009 A 
ATOM      7  C7  <0> d   1       0.751  -1.494  -0.403  0.00  0.00     0.092 A 
ATOM      8  C8  <0> d   1      -0.559  -0.976  -0.335  0.00  0.00     0.288 A 
ATOM      9  O1  <0> d   1      -0.800   0.098  -0.858  0.00  0.00    -0.260 OA
ATOM     10  O2  <0> d   1      -1.546  -1.635   0.290  0.00  0.00    -0.275 OA
ATOM     11  C9  <0> d   1      -1.331  -2.828   0.885  0.00  0.00     0.093 A 
ATOM     12  C10 <0> d   1      -2.364  -3.497   1.528  0.00  0.00     0.045 A 
ENDROOT
BRANCH   6  13
ATOM     13  C11 <0> d   1       2.426  -3.266   0.119  0.00  0.00     0.312 C 
BRANCH  13  14
ATOM     14  N1  <0> d   1       3.076  -3.105   1.426  0.00  0.00     0.096 N 
ATOM     15  C15 <0> d   1       4.280  -3.942   1.522  0.00  0.00     0.303 C 
ATOM     16  C14 <0> d   1       4.882  -3.807   2.923  0.00  0.00     0.302 C 
ATOM     17  N2  <0> d   1       5.203  -2.396   3.181  0.00  0.00     0.093 N 
ATOM     18  C13 <0> d   1       3.999  -1.559   3.085  0.00  0.00     0.302 C 
ATOM     19  C12 <0> d   1       3.397  -1.694   1.684  0.00  0.00     0.303 C 
BRANCH  17  20
ATOM     20  C16 <0> d   1       5.854  -2.235   4.488  0.00  0.00     0.298 C 
BRANCH  20  21
ATOM     21  C17 <0> d   1       7.308  -2.703   4.395  0.00  0.00     0.194 C 
BRANCH  21  22
ATOM     22  O3  <0> d   1       8.027  -1.849   3.503  0.00  0.00    -0.399 OA
ATOM     23  H21 <0> d   1       9.094  -2.031   3.309  0.00  0.00     0.209 HD
ENDBRANCH  21  22
ENDBRANCH  20  21
ENDBRANCH  17  20
ENDBRANCH  13  14
ENDBRANCH   6  13
BRANCH   4  24
ATOM     24  O4  <0> d   1       1.414  -5.204   1.450  0.00  0.00    -0.360 OA
ATOM     25  H22 <0> d   1       2.243  -4.686   0.945  0.00  0.00     0.217 HD
ENDBRANCH   4  24
TORSDOF 6
