REMARK  7 active torsions:
REMARK  status: ('A' for Active; 'I' for Inactive)
REMARK    1  A    between atoms: O1_2  and  C2_3 
REMARK    2  A    between atoms: C4_5  and  C10_13 
REMARK    3  A    between atoms: C5_6  and  O3_11 
REMARK    4  A    between atoms: C7_8  and  O2_9 
REMARK    5  A    between atoms: N1_25  and  C21_28 
REMARK    6  A    between atoms: C21_28  and  C22_29 
REMARK    7  A    between atoms: C22_29  and  N2_30 
ROOT
ATOM      1  C10 <0> d   1      -4.849   0.222   0.038  0.00  0.00     0.055 C 
ATOM      2  C11 <0> d   1      -4.802   1.576   0.142  0.00  0.00     0.128 A 
ATOM      3  C12 <0> d   1      -5.955   2.476   0.275  0.00  0.00     0.218 A 
ATOM      4  O4  <0> d   1      -7.136   2.175   0.313  0.00  0.00    -0.284 OA
ATOM      5  C13 <0> d   1      -5.365   3.824   0.352  0.00  0.00     0.051 A 
ATOM      6  C14 <0> d   1      -5.912   5.101   0.483  0.00  0.00     0.021 A 
ATOM      7  C15 <0> d   1      -5.092   6.191   0.526  0.00  0.00     0.038 A 
ATOM      8  C16 <0> d   1      -3.708   6.036   0.441  0.00  0.00     0.082 A 
ATOM      9  C17 <0> d   1      -3.152   4.775   0.313  0.00  0.00     0.038 A 
ATOM     10  C18 <0> d   1      -3.974   3.654   0.265  0.00  0.00     0.101 A 
ATOM     11  O5  <0> d   1      -3.684   2.340   0.149  0.00  0.00    -0.305 OA
ATOM     12  C19 <0> d   1      -1.658   4.593   0.227  0.00  0.00     0.319 C 
ATOM     13  N1  <0> d   1      -1.025   5.875  -0.115  0.00  0.00     0.117 N 
ATOM     14  C20 <0> d   1      -1.531   6.942   0.763  0.00  0.00     0.447 C 
ATOM     15  O6  <0> d   1      -2.919   7.142   0.484  0.00  0.00    -0.321 OA
ENDROOT
BRANCH   1  16
ATOM     16  C4  <0> d   1      -3.611  -0.560   0.087  0.00  0.00     0.003 A 
ATOM     17  C3  <0> d   1      -2.373   0.068  -0.113  0.00  0.00     0.054 A 
ATOM     18  C2  <0> d   1      -1.211  -0.673  -0.065  0.00  0.00     0.102 A 
ATOM     19  C7  <0> d   1      -1.265  -2.047   0.177  0.00  0.00     0.104 A 
ATOM     20  C6  <0> d   1      -2.485  -2.675   0.381  0.00  0.00     0.077 A 
ATOM     21  C5  <0> d   1      -3.658  -1.943   0.336  0.00  0.00     0.081 A 
BRANCH  18  22
ATOM     22  O1  <0> d   1      -0.010  -0.065  -0.260  0.00  0.00    -0.353 OA
ATOM     23  C1  <0> d   1      -0.028   1.344  -0.502  0.00  0.00     0.210 C 
ENDBRANCH  18  22
BRANCH  19  24
ATOM     24  O2  <0> d   1      -0.117  -2.771   0.217  0.00  0.00    -0.353 OA
ATOM     25  C8  <0> d   1      -0.242  -4.172   0.469  0.00  0.00     0.210 C 
ENDBRANCH  19  24
BRANCH  21  26
ATOM     26  O3  <0> d   1      -4.852  -2.559   0.531  0.00  0.00    -0.355 OA
ATOM     27  C9  <0> d   1      -4.823  -3.966   0.778  0.00  0.00     0.210 C 
ENDBRANCH  21  26
ENDBRANCH   1  16
BRANCH  13  28
ATOM     28  C21 <0> d   1       0.439   5.777  -0.034  0.00  0.00     0.305 C 
BRANCH  28  29
ATOM     29  C22 <0> d   1       1.068   7.037  -0.632  0.00  0.00     0.302 C 
BRANCH  29  30
ATOM     30  N2  <0> d   1       2.532   6.938  -0.551  0.00  0.00     0.094 N 
ATOM     31  C26 <0> d   1       3.175   8.012  -1.322  0.00  0.00     0.298 C 
ATOM     32  C25 <0> d   1       4.695   7.837  -1.260  0.00  0.00     0.198 C 
ATOM     33  O7  <0> d   1       5.113   7.828   0.108  0.00  0.00    -0.388 OA
ATOM     34  C24 <0> d   1       4.506   6.795   0.889  0.00  0.00     0.198 C 
ATOM     35  C23 <0> d   1       2.984   6.959   0.848  0.00  0.00     0.298 C 
ENDBRANCH  29  30
ENDBRANCH  28  29
ENDBRANCH  13  28
TORSDOF 7
