REMARK  7 active torsions:
REMARK  status: ('A' for Active; 'I' for Inactive)
REMARK    1  A    between atoms: C4_4  and  C7_7 
REMARK    2  A    between atoms: C7_7  and  C8_8 
REMARK    3  A    between atoms: C7_7  and  N1_14 
REMARK    4  A    between atoms: N2_17  and  C18_20 
REMARK    5  A    between atoms: C18_20  and  C19_21 
REMARK    6  A    between atoms: C26_30  and  O4_33 
REMARK    7  A    between atoms: C27_31  and  O3_32 
ROOT
ATOM      1  N1  <0> d   1      -2.439  -2.631  -3.393  0.00  0.00    -0.055 N 
ATOM      2  C14 <0> d   1      -2.320  -4.073  -3.135  0.00  0.00     0.266 C 
ATOM      3  C15 <0> d   1      -1.450  -4.297  -1.896  0.00  0.00     0.300 C 
ATOM      4  N2  <0> d   1      -0.128  -3.694  -2.113  0.00  0.00     0.096 N 
ATOM      5  C16 <0> d   1      -0.247  -2.252  -2.371  0.00  0.00     0.300 C 
ATOM      6  C17 <0> d   1      -1.117  -2.028  -3.610  0.00  0.00     0.266 C 
ATOM      7  H27 <0> d   1      -2.885  -2.163  -2.503  0.00  0.00     0.281 HD
ENDROOT
BRANCH   4   8
ATOM      8  C18 <0> d   1       0.762  -3.953  -0.974  0.00  0.00     0.312 C 
BRANCH   8   9
ATOM      9  C19 <0> d   1       2.187  -3.673  -1.377  0.00  0.00    -0.011 A 
ATOM     10  C23 <0> d   1       2.920  -4.599  -2.244  0.00  0.00     0.009 A 
ATOM     11  C22 <0> d   1       4.248  -4.298  -2.595  0.00  0.00     0.126 A 
ATOM     12  C24 <0> d   1       2.317  -5.769  -2.721  0.00  0.00     0.018 A 
ATOM     13  O2  <0> d   1       4.826  -3.167  -2.132  0.00  0.00    -0.272 OA
ATOM     14  C27 <0> d   1       4.952  -5.170  -3.417  0.00  0.00     0.134 A 
ATOM     15  C21 <0> d   1       4.160  -2.315  -1.338  0.00  0.00     0.288 A 
ATOM     16  C20 <0> d   1       2.827  -2.555  -0.947  0.00  0.00     0.092 A 
ATOM     17  O1  <0> d   1       4.722  -1.308  -0.944  0.00  0.00    -0.260 OA
ATOM     18  C26 <0> d   1       4.336  -6.325  -3.881  0.00  0.00     0.101 A 
ATOM     19  C25 <0> d   1       3.021  -6.616  -3.529  0.00  0.00     0.040 A 
BRANCH  14  20
ATOM     20  O3  <0> d   1       6.238  -4.894  -3.765  0.00  0.00    -0.356 OA
ATOM     21  H25 <0> d   1       6.792  -5.586  -4.416  0.00  0.00     0.218 HD
ENDBRANCH  14  20
BRANCH  18  22
ATOM     22  O4  <0> d   1       5.023  -7.179  -4.685  0.00  0.00    -0.358 OA
ATOM     23  H26 <0> d   1       6.062  -6.954  -4.966  0.00  0.00     0.217 HD
ENDBRANCH  18  22
ENDBRANCH   8   9
ENDBRANCH   4   8
BRANCH   1  24
ATOM     24  C7  <0> d   1      -3.330  -2.372  -4.532  0.00  0.00     0.254 C 
BRANCH  24  25
ATOM     25  C4  <0> d   1      -4.715  -2.869  -4.210  0.00  0.00    -0.023 A 
ATOM     26  C3  <0> d   1      -5.434  -3.574  -5.157  0.00  0.00     0.009 A 
ATOM     27  C2  <0> d   1      -6.705  -4.031  -4.862  0.00  0.00     0.001 A 
ATOM     28  C1  <0> d   1      -7.257  -3.783  -3.619  0.00  0.00     0.000 A 
ATOM     29  C6  <0> d   1      -6.537  -3.079  -2.671  0.00  0.00     0.001 A 
ATOM     30  C5  <0> d   1      -5.265  -2.627  -2.965  0.00  0.00     0.009 A 
ENDBRANCH  24  25
BRANCH  24  31
ATOM     31  C8  <0> d   1      -3.379  -0.890  -4.804  0.00  0.00    -0.023 A 
ATOM     32  C13 <0> d   1      -3.272  -0.421  -6.100  0.00  0.00     0.009 A 
ATOM     33  C12 <0> d   1      -3.317   0.938  -6.349  0.00  0.00     0.001 A 
ATOM     34  C11 <0> d   1      -3.469   1.828  -5.302  0.00  0.00     0.000 A 
ATOM     35  C10 <0> d   1      -3.577   1.359  -4.006  0.00  0.00     0.001 A 
ATOM     36  C9  <0> d   1      -3.536  -0.000  -3.758  0.00  0.00     0.009 A 
ENDBRANCH  24  31
ENDBRANCH   1  24
TORSDOF 7
