REMARK  4 active torsions:
REMARK  status: ('A' for Active; 'I' for Inactive)
REMARK    1  A    between atoms: C9_10  and  C10_11 
REMARK    2  A    between atoms: C13_14  and  O2_17 
REMARK    3  A    between atoms: N1_22  and  C20_25 
REMARK    4  A    between atoms: C20_25  and  C21_26 
ROOT
ATOM      1  C1  <0> d   1       4.496   1.814  -6.058  0.00  0.00     0.054 C 
ATOM      2  C2  <0> d   1       3.471   0.863  -5.497  0.00  0.00     0.007 A 
ATOM      3  C3  <0> d   1       3.121   0.936  -4.155  0.00  0.00     0.087 A 
ATOM      4  C4  <0> d   1       2.174   0.064  -3.627  0.00  0.00     0.005 A 
ATOM      5  C5  <0> d   1       1.583  -0.875  -4.428  0.00  0.00     0.030 A 
ATOM      6  C6  <0> d   1       1.927  -0.959  -5.776  0.00  0.00     0.052 A 
ATOM      7  C7  <0> d   1       2.880  -0.083  -6.322  0.00  0.00     0.099 A 
ATOM      8  O1  <0> d   1       3.045  -0.353  -7.636  0.00  0.00    -0.305 OA
ATOM      9  C8  <0> d   1       2.258  -1.376  -8.043  0.00  0.00     0.127 A 
ATOM     10  C9  <0> d   1       2.192  -1.886  -9.299  0.00  0.00     0.053 C 
ATOM     11  C17 <0> d   1       1.487  -1.834  -6.878  0.00  0.00     0.218 A 
ATOM     12  O3  <0> d   1       0.667  -2.735  -6.833  0.00  0.00    -0.284 OA
ATOM     13  C18 <0> d   1       1.784   0.140  -2.172  0.00  0.00     0.317 C 
ATOM     14  N1  <0> d   1       2.801   0.897  -1.429  0.00  0.00     0.120 N 
ATOM     15  C19 <0> d   1       3.093   2.165  -2.118  0.00  0.00     0.448 C 
ATOM     16  O4  <0> d   1       3.718   1.870  -3.369  0.00  0.00    -0.320 OA
ENDROOT
BRANCH  10  17
ATOM     17  C10 <0> d   1       2.940  -1.250 -10.390  0.00  0.00    -0.033 A 
ATOM     18  C15 <0> d   1       3.822  -0.197 -10.117  0.00  0.00     0.014 A 
ATOM     19  C14 <0> d   1       4.522   0.395 -11.143  0.00  0.00     0.037 A 
ATOM     20  C13 <0> d   1       4.354  -0.050 -12.450  0.00  0.00     0.068 A 
ATOM     21  C12 <0> d   1       3.479  -1.094 -12.727  0.00  0.00     0.037 A 
ATOM     22  C11 <0> d   1       2.779  -1.698 -11.708  0.00  0.00     0.014 A 
BRANCH  20  23
ATOM     23  O2  <0> d   1       5.046   0.538 -13.459  0.00  0.00    -0.356 OA
ATOM     24  C16 <0> d   1       4.827   0.032 -14.777  0.00  0.00     0.210 C 
ENDBRANCH  20  23
ENDBRANCH  10  17
BRANCH  14  25
ATOM     25  C20 <0> d   1       2.370   1.137  -0.045  0.00  0.00     0.315 C 
BRANCH  25  26
ATOM     26  C21 <0> d   1       1.046   1.858  -0.048  0.00  0.00    -0.013 A 
ATOM     27  C25 <0> d   1      -0.138   1.145  -0.045  0.00  0.00     0.125 A 
ATOM     28  N2  <0> d   1      -1.300   1.768  -0.054  0.00  0.00    -0.273 NA
ATOM     29  C24 <0> d   1      -1.381   3.084  -0.055  0.00  0.00     0.116 A 
ATOM     30  C23 <0> d   1      -0.239   3.863  -0.058  0.00  0.00     0.020 A 
ATOM     31  C22 <0> d   1       1.001   3.244  -0.055  0.00  0.00     0.012 A 
ENDBRANCH  25  26
ENDBRANCH  14  25
TORSDOF 4
