REMARK  5 active torsions:
REMARK  status: ('A' for Active; 'I' for Inactive)
REMARK    1  A    between atoms: C2_2  and  C10_14 
REMARK    2  A    between atoms: C10_14  and  N1_15 
REMARK    3  A    between atoms: N2_18  and  C15_21 
REMARK    4  A    between atoms: C15_21  and  C16_22 
REMARK    5  A    between atoms: C16_22  and  O4_23 
ROOT
ATOM      1  C1  <0> d   1      -1.167   2.722   4.320  0.00  0.00     0.092 A 
ATOM      2  C2  <0> d   1      -1.029   3.720   3.409  0.00  0.00    -0.011 A 
ATOM      3  C3  <0> d   1       0.001   4.734   3.646  0.00  0.00     0.008 A 
ATOM      4  C4  <0> d   1       0.190   5.792   2.749  0.00  0.00     0.041 A 
ATOM      5  C5  <0> d   1       1.157   6.725   2.994  0.00  0.00     0.071 A 
ATOM      6  C6  <0> d   1       1.957   6.630   4.132  0.00  0.00     0.131 A 
ATOM      7  C7  <0> d   1       1.783   5.590   5.030  0.00  0.00     0.080 A 
ATOM      8  C8  <0> d   1       0.805   4.634   4.796  0.00  0.00     0.093 A 
ATOM      9  O1  <0> d   1       0.619   3.612   5.659  0.00  0.00    -0.275 OA
ATOM     10  C9  <0> d   1      -0.323   2.680   5.449  0.00  0.00     0.288 A 
ATOM     11  O2  <0> d   1      -0.454   1.776   6.255  0.00  0.00    -0.260 OA
ATOM     12  O3  <0> d   1       2.914   7.565   4.362  0.00  0.00    -0.190 OA
ATOM     13 Cl1  <0> d   1       1.391   8.037   1.881  0.00  0.00    -0.081 Cl
ENDROOT
BRANCH   2  14
ATOM     14  C10 <0> d   1      -1.915   3.786   2.192  0.00  0.00     0.312 C 
BRANCH  14  15
ATOM     15  N1  <0> d   1      -1.189   3.256   1.030  0.00  0.00     0.096 N 
ATOM     16  C14 <0> d   1      -1.925   3.519  -0.215  0.00  0.00     0.303 C 
ATOM     17  C13 <0> d   1      -1.102   3.023  -1.406  0.00  0.00     0.302 C 
ATOM     18  N2  <0> d   1      -0.834   1.587  -1.249  0.00  0.00     0.093 N 
ATOM     19  C12 <0> d   1      -0.098   1.324  -0.005  0.00  0.00     0.302 C 
ATOM     20  C11 <0> d   1      -0.921   1.819   1.187  0.00  0.00     0.303 C 
BRANCH  18  21
ATOM     21  C15 <0> d   1      -0.109   1.057  -2.412  0.00  0.00     0.298 C 
BRANCH  21  22
ATOM     22  C16 <0> d   1      -0.268  -0.464  -2.462  0.00  0.00     0.194 C 
BRANCH  22  23
ATOM     23  O4  <0> d   1      -1.641  -0.792  -2.682  0.00  0.00    -0.399 OA
ATOM     24  H18 <0> d   1      -1.951  -1.846  -2.748  0.00  0.00     0.209 HD
ENDBRANCH  22  23
ENDBRANCH  21  22
ENDBRANCH  18  21
ENDBRANCH  14  15
ENDBRANCH   2  14
TORSDOF 5
