REMARK  7 active torsions:
REMARK  status: ('A' for Active; 'I' for Inactive)
REMARK    1  A    between atoms: C2_2  and  N1_3 
REMARK    2  A    between atoms: N2_6  and  C7_9 
REMARK    3  A    between atoms: C7_9  and  C8_10 
REMARK    4  A    between atoms: C9_11  and  O5_32 
REMARK    5  A    between atoms: C15_18  and  C17_21 
REMARK    6  A    between atoms: C20_24  and  O4_29 
REMARK    7  A    between atoms: C21_25  and  O3_27 
ROOT
ATOM      1  C8  <0> d   1       3.317  -3.984  -3.871  0.00  0.00     0.038 A 
ATOM      2  C9  <0> d   1       4.367  -4.667  -3.280  0.00  0.00     0.076 A 
ATOM      3  C10 <0> d   1       4.398  -6.060  -3.281  0.00  0.00     0.038 A 
ATOM      4  C11 <0> d   1       3.387  -6.771  -3.864  0.00  0.00     0.021 A 
ATOM      5  C12 <0> d   1       2.322  -6.097  -4.460  0.00  0.00     0.050 A 
ATOM      6  C13 <0> d   1       2.280  -4.691  -4.465  0.00  0.00     0.100 A 
ATOM      7  O1  <0> d   1       1.255  -4.043  -5.051  0.00  0.00    -0.313 OA
ATOM      8  C14 <0> d   1       0.117  -4.667  -5.365  0.00  0.00     0.065 C 
ATOM      9  C15 <0> d   1       0.009  -6.020  -5.411  0.00  0.00     0.055 C 
ATOM     10  C16 <0> d   1       1.207  -6.825  -5.093  0.00  0.00     0.198 C 
ATOM     11  O2  <0> d   1       1.265  -8.021  -5.326  0.00  0.00    -0.286 OA
ATOM     12  C25 <0> d   1      -1.099  -3.834  -5.681  0.00  0.00     0.077 C 
ENDROOT
BRANCH   9  13
ATOM     13  C17 <0> d   1      -1.272  -6.670  -5.781  0.00  0.00    -0.017 A 
ATOM     14  C22 <0> d   1      -1.360  -7.423  -6.951  0.00  0.00     0.052 A 
ATOM     15  C21 <0> d   1      -2.554  -8.033  -7.290  0.00  0.00     0.102 A 
ATOM     16  C20 <0> d   1      -3.669  -7.884  -6.469  0.00  0.00     0.101 A 
ATOM     17  C19 <0> d   1      -3.582  -7.131  -5.309  0.00  0.00     0.040 A 
ATOM     18  C18 <0> d   1      -2.391  -6.525  -4.963  0.00  0.00     0.015 A 
BRANCH  15  19
ATOM     19  O3  <0> d   1      -2.641  -8.773  -8.428  0.00  0.00    -0.353 OA
ATOM     20  C23 <0> d   1      -1.459  -8.883  -9.222  0.00  0.00     0.210 C 
ENDBRANCH  15  19
BRANCH  16  21
ATOM     21  O4  <0> d   1      -4.844  -8.479  -6.806  0.00  0.00    -0.353 OA
ATOM     22  C24 <0> d   1      -5.947  -8.286  -5.918  0.00  0.00     0.210 C 
ENDBRANCH  16  21
ENDBRANCH   9  13
BRANCH   1  23
ATOM     23  C7  <0> d   1       3.296  -2.477  -3.863  0.00  0.00     0.317 C 
BRANCH  23  24
ATOM     24  N2  <0> d   1       2.609  -2.003  -2.654  0.00  0.00     0.096 N 
ATOM     25  C4  <0> d   1       2.774  -0.552  -2.489  0.00  0.00     0.303 C 
ATOM     26  C3  <0> d   1       2.113  -0.112  -1.180  0.00  0.00     0.302 C 
ATOM     27  N1  <0> d   1       0.690  -0.478  -1.207  0.00  0.00     0.091 N 
ATOM     28  C6  <0> d   1       0.525  -1.929  -1.372  0.00  0.00     0.302 C 
ATOM     29  C5  <0> d   1       1.186  -2.369  -2.680  0.00  0.00     0.303 C 
BRANCH  27  30
ATOM     30  C2  <0> d   1       0.002  -0.004   0.002  0.00  0.00     0.268 C 
ATOM     31  C1  <0> d   1      -0.019   1.526   0.010  0.00  0.00     0.037 C 
ENDBRANCH  27  30
ENDBRANCH  23  24
ENDBRANCH   1  23
BRANCH   2  32
ATOM     32  O5  <0> d   1       5.376  -3.973  -2.696  0.00  0.00    -0.360 OA
ATOM     33  H30 <0> d   1       5.231  -3.782  -1.759  0.00  0.00     0.217 HD
ENDBRANCH   2  32
TORSDOF 7
