REMARK  9 active torsions:
REMARK  status: ('A' for Active; 'I' for Inactive)
REMARK    1  A    between atoms: C3_3  and  C19_26 
REMARK    2  A    between atoms: C4_4  and  C5_8 
REMARK    3  A    between atoms: C8_11  and  O2_15 
REMARK    4  A    between atoms: C10_13  and  O1_14 
REMARK    5  A    between atoms: O2_15  and  C11_16 
REMARK    6  A    between atoms: C11_16  and  C12_17 
REMARK    7  A    between atoms: C12_17  and  N3_18 
REMARK    8  A    between atoms: C22_29  and  O5_34 
REMARK    9  A    between atoms: C23_30  and  O4_32 
ROOT
ATOM      1  C5  <0> d   1       0.248  -3.213  -1.685  0.00  0.00     0.029 A 
ATOM      2  C6  <0> d   1       0.352  -2.964  -3.052  0.00  0.00     0.019 A 
ATOM      3  C7  <0> d   1       0.470  -4.015  -3.937  0.00  0.00     0.038 A 
ATOM      4  C8  <0> d   1       0.486  -5.323  -3.470  0.00  0.00     0.071 A 
ATOM      5  C9  <0> d   1       0.382  -5.579  -2.110  0.00  0.00     0.074 A 
ATOM      6  C10 <0> d   1       0.269  -4.530  -1.214  0.00  0.00     0.081 A 
ENDROOT
BRANCH   1   7
ATOM      7  C4  <0> d   1       0.121  -2.084  -0.732  0.00  0.00     0.103 A 
ATOM      8  C3  <0> d   1      -0.761  -0.982  -0.855  0.00  0.00     0.029 A 
ATOM      9  C2  <0> d   1      -0.565  -0.177   0.226  0.00  0.00     0.037 A 
ATOM     10  C1  <0> d   1      -1.287   1.114   0.515  0.00  0.00     0.070 C 
ATOM     11  N2  <0> d   1       0.396  -0.738   0.990  0.00  0.00    -0.281 N 
ATOM     12  N1  <0> d   1       0.807  -1.929   0.380  0.00  0.00    -0.173 NA
ATOM     13  H1  <0> d   1       0.742  -0.378   1.822  0.00  0.00     0.189 HD
BRANCH   8  14
ATOM     14  C19 <0> d   1      -1.724  -0.748  -1.960  0.00  0.00    -0.019 A 
ATOM     15  C24 <0> d   1      -1.543   0.327  -2.827  0.00  0.00     0.052 A 
ATOM     16  C23 <0> d   1      -2.440   0.539  -3.859  0.00  0.00     0.102 A 
ATOM     17  C22 <0> d   1      -3.527  -0.316  -4.022  0.00  0.00     0.101 A 
ATOM     18  C21 <0> d   1      -3.709  -1.382  -3.155  0.00  0.00     0.040 A 
ATOM     19  C20 <0> d   1      -2.814  -1.600  -2.127  0.00  0.00     0.015 A 
BRANCH  16  20
ATOM     20  O4  <0> d   1      -2.263   1.584  -4.711  0.00  0.00    -0.353 OA
ATOM     21  C25 <0> d   1      -1.126   2.420  -4.484  0.00  0.00     0.210 C 
ENDBRANCH  16  20
BRANCH  17  22
ATOM     22  O5  <0> d   1      -4.411  -0.105  -5.035  0.00  0.00    -0.353 OA
ATOM     23  C26 <0> d   1      -5.502  -1.020  -5.144  0.00  0.00     0.210 C 
ENDBRANCH  17  22
ENDBRANCH   8  14
ENDBRANCH   1   7
BRANCH   6  24
ATOM     24  O1  <0> d   1       0.173  -4.779   0.118  0.00  0.00    -0.360 OA
ATOM     25  H10 <0> d   1      -0.735  -4.890   0.433  0.00  0.00     0.217 HD
ENDBRANCH   6  24
BRANCH   4  26
ATOM     26  O2  <0> d   1       0.602  -6.354  -4.346  0.00  0.00    -0.349 OA
BRANCH  26  27
ATOM     27  C11 <0> d   1       0.704  -6.020  -5.732  0.00  0.00     0.206 C 
BRANCH  27  28
ATOM     28  C12 <0> d   1       0.826  -7.301  -6.558  0.00  0.00     0.299 C 
BRANCH  28  29
ATOM     29  N3  <0> d   1      -0.412  -8.082  -6.438  0.00  0.00     0.095 N 
ATOM     30  C16 <0> d   1      -0.249  -9.423  -7.019  0.00  0.00     0.303 C 
ATOM     31  C15 <0> d   1      -1.540 -10.221  -6.818  0.00  0.00     0.146 C 
ATOM     32  O3  <0> d   1      -2.631  -9.506  -7.404  0.00  0.00    -0.378 OA
ATOM     33  C17 <0> d   1      -1.405 -11.588  -7.490  0.00  0.00     0.041 C 
ATOM     34  C14 <0> d   1      -2.820  -8.197  -6.861  0.00  0.00     0.146 C 
ATOM     35  C13 <0> d   1      -1.542  -7.378  -7.061  0.00  0.00     0.303 C 
ATOM     36  C18 <0> d   1      -3.985  -7.509  -7.575  0.00  0.00     0.041 C 
ENDBRANCH  28  29
ENDBRANCH  27  28
ENDBRANCH  26  27
ENDBRANCH   4  26
TORSDOF 9
