REMARK  6 active torsions:
REMARK  status: ('A' for Active; 'I' for Inactive)
REMARK    1  A    between atoms: C2_2  and  C3_3 
REMARK    2  A    between atoms: C5_5  and  C15_19 
REMARK    3  A    between atoms: C7_7  and  C9_10 
REMARK    4  A    between atoms: C8_8  and  O1_9 
REMARK    5  A    between atoms: C9_10  and  N1_11 
REMARK    6  A    between atoms: C16_20  and  C19_26 
ROOT
ATOM      1  C3  <0> d   1       0.660  -0.464  -1.221  0.00  0.00    -0.024 A 
ATOM      2  C4  <0> d   1      -0.058  -0.800  -2.349  0.00  0.00     0.026 A 
ATOM      3  C5  <0> d   1       0.609  -1.246  -3.492  0.00  0.00     0.031 A 
ATOM      4  C6  <0> d   1       2.007  -1.350  -3.486  0.00  0.00     0.130 A 
ATOM      5  C7  <0> d   1       2.716  -1.010  -2.349  0.00  0.00     0.039 A 
ATOM      6  C8  <0> d   1       2.046  -0.563  -1.219  0.00  0.00     0.082 A 
ATOM      7  O2  <0> d   1       2.662  -1.783  -4.594  0.00  0.00    -0.190 OA
ENDROOT
BRANCH   3   8
ATOM      8  C15 <0> d   1      -0.156  -1.608  -4.701  0.00  0.00     0.079 A 
ATOM      9  C16 <0> d   1      -0.254  -2.874  -5.272  0.00  0.00     0.065 A 
ATOM     10  C17 <0> d   1      -1.082  -2.756  -6.407  0.00  0.00     0.067 A 
ATOM     11  C18 <0> d   1      -1.467  -3.877  -7.337  0.00  0.00     0.073 C 
ATOM     12  N3  <0> d   1      -1.458  -1.511  -6.516  0.00  0.00    -0.178 NA
ATOM     13  N4  <0> d   1      -0.904  -0.768  -5.468  0.00  0.00    -0.276 N 
ATOM     14  H1  <0> d   1      -1.030   0.181  -5.314  0.00  0.00     0.189 HD
BRANCH   9  15
ATOM     15  C19 <0> d   1       0.388  -4.108  -4.782  0.00  0.00     0.145 A 
ATOM     16  N6  <0> d   1      -0.254  -5.299  -4.567  0.00  0.00    -0.333 N 
ATOM     17  C25 <0> d   1       0.694  -6.199  -4.116  0.00  0.00     0.064 A 
ATOM     18  C26 <0> d   1      -1.678  -5.570  -4.780  0.00  0.00     0.158 C 
ATOM     19  C20 <0> d   1       1.910  -5.495  -4.063  0.00  0.00     0.086 A 
ATOM     20  C24 <0> d   1       0.651  -7.534  -3.741  0.00  0.00     0.032 A 
ATOM     21  N5  <0> d   1       1.660  -4.230  -4.481  0.00  0.00    -0.228 NA
ATOM     22  C21 <0> d   1       3.067  -6.152  -3.632  0.00  0.00     0.034 A 
ATOM     23  C22 <0> d   1       3.004  -7.477  -3.264  0.00  0.00     0.002 A 
ATOM     24  C23 <0> d   1       1.801  -8.166  -3.318  0.00  0.00     0.002 A 
ENDBRANCH   9  15
ENDBRANCH   3   8
BRANCH   1  25
ATOM     25  C2  <0> d   1      -0.061   0.017   0.012  0.00  0.00     0.037 C 
ATOM     26  C1  <0> d   1      -0.098   1.547   0.016  0.00  0.00     0.010 C 
ENDBRANCH   1  25
BRANCH   5  27
ATOM     27  C9  <0> d   1       4.219  -1.119  -2.338  0.00  0.00     0.279 C 
BRANCH  27  28
ATOM     28  N1  <0> d   1       4.806   0.150  -2.786  0.00  0.00    -0.064 N 
ATOM     29  C13 <0> d   1       6.268   0.085  -2.662  0.00  0.00     0.265 C 
ATOM     30  C12 <0> d   1       6.879   1.414  -3.111  0.00  0.00     0.299 C 
ATOM     31  N2  <0> d   1       6.500   1.677  -4.506  0.00  0.00     0.087 N 
ATOM     32  C11 <0> d   1       5.038   1.721  -4.651  0.00  0.00     0.299 C 
ATOM     33  C14 <0> d   1       7.115   2.919  -4.994  0.00  0.00     0.310 C 
ATOM     34  C10 <0> d   1       4.443   0.389  -4.189  0.00  0.00     0.265 C 
ATOM     35  H32 <0> d   1       4.454   0.904  -2.215  0.00  0.00     0.280 HD
ENDBRANCH  27  28
ENDBRANCH   5  27
BRANCH   6  36
ATOM     36  O1  <0> d   1       2.746  -0.224  -0.106  0.00  0.00    -0.359 OA
ATOM     37  H8  <0> d   1       2.890  -0.958   0.507  0.00  0.00     0.217 HD
ENDBRANCH   6  36
TORSDOF 6
