REMARK  4 active torsions:
REMARK  status: ('A' for Active; 'I' for Inactive)
REMARK    1  A    between atoms: O1_2  and  C2_3 
REMARK    2  A    between atoms: C5_6  and  C9_11 
REMARK    3  A    between atoms: C7_8  and  O2_9 
REMARK    4  A    between atoms: C11_13  and  C12_17 
ROOT
ATOM      1  C9  <0> d   1      -4.966  -2.616   0.035  0.00  0.00     0.062 A 
ATOM      2  C10 <0> d   1      -6.191  -2.015   0.046  0.00  0.00     0.066 A 
ATOM      3  C11 <0> d   1      -7.166  -3.027   0.052  0.00  0.00     0.092 A 
ATOM      4  N1  <0> d   1      -6.552  -4.192   0.046  0.00  0.00    -0.174 NA
ATOM      5  H1  <0> d   1      -4.480  -4.645   0.018  0.00  0.00     0.189 HD
ATOM      6  N2  <0> d   1      -5.170  -3.964   0.029  0.00  0.00    -0.277 N 
ENDROOT
BRANCH   1   7
ATOM      7  C5  <0> d   1      -3.655  -1.930   0.026  0.00  0.00    -0.005 A 
ATOM      8  C4  <0> d   1      -3.596  -0.536   0.028  0.00  0.00     0.017 A 
ATOM      9  C3  <0> d   1      -2.373   0.103   0.019  0.00  0.00     0.040 A 
ATOM     10  C2  <0> d   1      -1.201  -0.638   0.010  0.00  0.00     0.101 A 
ATOM     11  C7  <0> d   1      -1.253  -2.029   0.003  0.00  0.00     0.102 A 
ATOM     12  C6  <0> d   1      -2.476  -2.675   0.016  0.00  0.00     0.053 A 
BRANCH  10  13
ATOM     13  O1  <0> d   1       0.002  -0.004   0.002  0.00  0.00    -0.353 OA
ATOM     14  C1  <0> d   1      -0.017   1.425   0.010  0.00  0.00     0.210 C 
ENDBRANCH  10  13
BRANCH  11  15
ATOM     15  O2  <0> d   1      -0.102  -2.753  -0.012  0.00  0.00    -0.353 OA
ATOM     16  C8  <0> d   1      -0.231  -4.176  -0.018  0.00  0.00     0.210 C 
ENDBRANCH  11  15
ENDBRANCH   1   7
BRANCH   3  17
ATOM     17  C12 <0> d   1      -8.635  -2.819   0.065  0.00  0.00     0.034 A 
ATOM     18  C17 <0> d   1      -9.499  -3.917   0.070  0.00  0.00     0.120 A 
ATOM     19  C16 <0> d   1     -10.870  -3.715   0.087  0.00  0.00     0.044 A 
ATOM     20  O3  <0> d   1      -8.996  -5.179   0.064  0.00  0.00    -0.191 OA
ATOM     21  C15 <0> d   1     -11.381  -2.431   0.088  0.00  0.00     0.045 A 
ATOM     22  C14 <0> d   1     -10.527  -1.339   0.077  0.00  0.00     0.117 A 
ATOM     23  C13 <0> d   1      -9.158  -1.528   0.066  0.00  0.00     0.059 A 
ATOM     24  F1  <0> d   1     -11.035  -0.087   0.078  0.00  0.00    -0.206 F 
ENDBRANCH   3  17
TORSDOF 4
