REMARK  7 active torsions:
REMARK  status: ('A' for Active; 'I' for Inactive)
REMARK    1  A    between atoms: C2_2  and  N1_3 
REMARK    2  A    between atoms: N2_6  and  C7_9 
REMARK    3  A    between atoms: C7_9  and  C8_10 
REMARK    4  A    between atoms: C9_11  and  O4_30 
REMARK    5  A    between atoms: C15_18  and  C16_19 
REMARK    6  A    between atoms: C21_24  and  O2_25 
REMARK    7  A    between atoms: O2_25  and  C22_26 
ROOT
ATOM      1  C8  <0> d   1       2.772  -4.116  -3.053  0.00  0.00     0.038 A 
ATOM      2  C9  <0> d   1       3.714  -4.828  -2.329  0.00  0.00     0.076 A 
ATOM      3  C10 <0> d   1       3.787  -6.214  -2.431  0.00  0.00     0.038 A 
ATOM      4  C11 <0> d   1       2.925  -6.888  -3.250  0.00  0.00     0.021 A 
ATOM      5  C12 <0> d   1       1.971  -6.184  -3.985  0.00  0.00     0.051 A 
ATOM      6  C13 <0> d   1       1.885  -4.786  -3.886  0.00  0.00     0.101 A 
ATOM      7  O1  <0> d   1       0.889  -4.334  -4.679  0.00  0.00    -0.305 OA
ATOM      8  C14 <0> d   1       0.265  -5.345  -5.329  0.00  0.00     0.128 A 
ATOM      9  C15 <0> d   1      -0.773  -5.221  -6.196  0.00  0.00     0.055 C 
ATOM     10  C24 <0> d   1       0.922  -6.599  -4.935  0.00  0.00     0.218 A 
ATOM     11  O3  <0> d   1       0.653  -7.730  -5.301  0.00  0.00    -0.284 OA
ENDROOT
BRANCH   9  12
ATOM     12  C16 <0> d   1      -1.401  -3.912  -6.407  0.00  0.00     0.000 A 
ATOM     13  C21 <0> d   1      -2.668  -3.824  -7.006  0.00  0.00     0.079 A 
ATOM     14  C20 <0> d   1      -3.253  -2.582  -7.195  0.00  0.00     0.037 A 
ATOM     15  C19 <0> d   1      -2.588  -1.436  -6.805  0.00  0.00     0.003 A 
ATOM     16  C18 <0> d   1      -1.335  -1.516  -6.218  0.00  0.00     0.001 A 
ATOM     17  C17 <0> d   1      -0.739  -2.741  -6.017  0.00  0.00     0.014 A 
BRANCH  13  18
ATOM     18  O2  <0> d   1      -3.319  -4.950  -7.395  0.00  0.00    -0.351 OA
BRANCH  18  19
ATOM     19  C22 <0> d   1      -4.604  -4.782  -7.997  0.00  0.00     0.171 C 
ATOM     20  C23 <0> d   1      -5.177  -6.152  -8.366  0.00  0.00     0.034 C 
ENDBRANCH  18  19
ENDBRANCH  13  18
ENDBRANCH   9  12
BRANCH   1  21
ATOM     21  C7  <0> d   1       2.705  -2.615  -2.933  0.00  0.00     0.317 C 
BRANCH  21  22
ATOM     22  N2  <0> d   1       1.790  -2.252  -1.843  0.00  0.00     0.096 N 
ATOM     23  C4  <0> d   1       1.877  -0.817  -1.538  0.00  0.00     0.303 C 
ATOM     24  C3  <0> d   1       0.971  -0.494  -0.348  0.00  0.00     0.302 C 
ATOM     25  N1  <0> d   1      -0.411  -0.878  -0.670  0.00  0.00     0.091 N 
ATOM     26  C6  <0> d   1      -0.498  -2.313  -0.975  0.00  0.00     0.302 C 
ATOM     27  C5  <0> d   1       0.408  -2.635  -2.165  0.00  0.00     0.303 C 
BRANCH  25  28
ATOM     28  C2  <0> d   1      -1.326  -0.514   0.420  0.00  0.00     0.268 C 
ATOM     29  C1  <0> d   1      -1.394   1.009   0.542  0.00  0.00     0.037 C 
ENDBRANCH  25  28
ENDBRANCH  21  22
ENDBRANCH   1  21
BRANCH   2  30
ATOM     30  O4  <0> d   1       4.575  -4.167  -1.512  0.00  0.00    -0.360 OA
ATOM     31  H28 <0> d   1       4.251  -4.055  -0.608  0.00  0.00     0.217 HD
ENDBRANCH   2  30
TORSDOF 7
