REMARK  9 active torsions:
REMARK  status: ('A' for Active; 'I' for Inactive)
REMARK    1  A    between atoms: C3_3  and  O5_24 
REMARK    2  A    between atoms: C8_9  and  O4_23 
REMARK    3  A    between atoms: C9_10  and  C11_13 
REMARK    4  A    between atoms: C11_13  and  N1_14 
REMARK    5  A    between atoms: N2_17  and  C16_20 
REMARK    6  A    between atoms: C16_20  and  C17_21 
REMARK    7  A    between atoms: C17_21  and  O3_22 
REMARK    8  A    between atoms: O5_24  and  C18_25 
REMARK    9  A    between atoms: C23_30  and  O6_31 
ROOT
ATOM      1  C1  <0> d   1      -0.024   1.489  -0.116  0.00  0.00     0.080 C 
ATOM      2  C2  <0> d   1      -0.005  -0.017  -0.060  0.00  0.00     0.087 A 
ATOM      3  C3  <0> d   1      -1.171  -0.672   0.105  0.00  0.00     0.156 A 
ATOM      4  C4  <0> d   1      -1.175  -2.095   0.160  0.00  0.00     0.221 A 
ATOM      5  O1  <0> d   1      -2.211  -2.722   0.308  0.00  0.00    -0.284 OA
ATOM      6  C5  <0> d   1       0.123  -2.778   0.030  0.00  0.00     0.052 A 
ATOM      7  C6  <0> d   1       0.221  -4.170   0.071  0.00  0.00     0.021 A 
ATOM      8  C7  <0> d   1       1.442  -4.768  -0.054  0.00  0.00     0.038 A 
ATOM      9  C8  <0> d   1       2.591  -3.996  -0.221  0.00  0.00     0.076 A 
ATOM     10  C9  <0> d   1       2.511  -2.614  -0.263  0.00  0.00     0.038 A 
ATOM     11  C10 <0> d   1       1.277  -1.992  -0.139  0.00  0.00     0.101 A 
ATOM     12  O2  <0> d   1       1.170  -0.648  -0.182  0.00  0.00    -0.311 OA
ENDROOT
BRANCH  10  13
ATOM     13  C11 <0> d   1       3.759  -1.790  -0.444  0.00  0.00     0.317 C 
BRANCH  13  14
ATOM     14  N1  <0> d   1       4.001  -1.574  -1.877  0.00  0.00     0.096 N 
ATOM     15  C15 <0> d   1       5.066  -0.584  -2.088  0.00  0.00     0.303 C 
ATOM     16  C14 <0> d   1       5.231  -0.329  -3.588  0.00  0.00     0.302 C 
ATOM     17  N2  <0> d   1       5.551  -1.593  -4.265  0.00  0.00     0.093 N 
ATOM     18  C13 <0> d   1       4.486  -2.584  -4.053  0.00  0.00     0.302 C 
ATOM     19  C12 <0> d   1       4.320  -2.839  -2.554  0.00  0.00     0.303 C 
BRANCH  17  20
ATOM     20  C16 <0> d   1       5.792  -1.377  -5.698  0.00  0.00     0.298 C 
BRANCH  20  21
ATOM     21  C17 <0> d   1       7.059  -0.540  -5.881  0.00  0.00     0.194 C 
BRANCH  21  22
ATOM     22  O3  <0> d   1       8.190  -1.280  -5.414  0.00  0.00    -0.399 OA
ATOM     23  H20 <0> d   1       9.030  -0.809  -5.500  0.00  0.00     0.209 HD
ENDBRANCH  21  22
ENDBRANCH  20  21
ENDBRANCH  17  20
ENDBRANCH  13  14
ENDBRANCH  10  13
BRANCH   9  24
ATOM     24  O4  <0> d   1       3.798  -4.604  -0.342  0.00  0.00    -0.360 OA
ATOM     25  H21 <0> d   1       4.043  -4.814  -1.254  0.00  0.00     0.217 HD
ENDBRANCH   9  24
BRANCH   3  26
ATOM     26  O5  <0> d   1      -2.337   0.021   0.219  0.00  0.00    -0.301 OA
BRANCH  26  27
ATOM     27  C18 <0> d   1      -2.987  -0.016   1.412  0.00  0.00     0.109 A 
ATOM     28  C23 <0> d   1      -4.236   0.584   1.545  0.00  0.00     0.102 A 
ATOM     29  C22 <0> d   1      -4.898   0.538   2.761  0.00  0.00     0.039 A 
ATOM     30  C21 <0> d   1      -4.312  -0.092   3.843  0.00  0.00     0.003 A 
ATOM     31  C20 <0> d   1      -3.069  -0.684   3.713  0.00  0.00     0.003 A 
ATOM     32  C19 <0> d   1      -2.406  -0.647   2.501  0.00  0.00     0.040 A 
BRANCH  28  33
ATOM     33  O6  <0> d   1      -4.809   1.208   0.481  0.00  0.00    -0.353 OA
ATOM     34  C24 <0> d   1      -6.092   1.802   0.690  0.00  0.00     0.210 C 
ENDBRANCH  28  33
ENDBRANCH  26  27
ENDBRANCH   3  26
TORSDOF 9
