REMARK  7 active torsions:
REMARK  status: ('A' for Active; 'I' for Inactive)
REMARK    1  A    between atoms: C4_4  and  C7_7 
REMARK    2  A    between atoms: C12_12  and  O4_28 
REMARK    3  A    between atoms: C13_13  and  C16_18 
REMARK    4  A    between atoms: C16_18  and  N1_19 
REMARK    5  A    between atoms: N2_22  and  C21_25 
REMARK    6  A    between atoms: C21_25  and  C22_26 
REMARK    7  A    between atoms: C22_26  and  O3_27 
ROOT
ATOM      1  C7  <0> d   1       3.697  -0.687  -0.038  0.00  0.00     0.051 C 
ATOM      2  C8  <0> d   1       4.086  -1.477   1.015  0.00  0.00     0.032 C 
ATOM      3  C9  <0> d   1       5.354  -2.111   0.947  0.00  0.00    -0.000 A 
ATOM      4  C10 <0> d   1       5.716  -3.081   1.893  0.00  0.00     0.017 A 
ATOM      5  C11 <0> d   1       6.921  -3.712   1.793  0.00  0.00     0.038 A 
ATOM      6  C12 <0> d   1       7.801  -3.396   0.760  0.00  0.00     0.076 A 
ATOM      7  C13 <0> d   1       7.470  -2.427  -0.173  0.00  0.00     0.038 A 
ATOM      8  C14 <0> d   1       6.252  -1.771  -0.082  0.00  0.00     0.100 A 
ATOM      9  O1  <0> d   1       5.932  -0.792  -0.963  0.00  0.00    -0.273 OA
ATOM     10  C15 <0> d   1       4.611  -0.587  -1.188  0.00  0.00     0.299 C 
ATOM     11  O2  <0> d   1       4.194  -0.324  -2.301  0.00  0.00    -0.259 OA
ENDROOT
BRANCH   7  12
ATOM     12  C16 <0> d   1       8.430  -2.087  -1.284  0.00  0.00     0.317 C 
BRANCH  12  13
ATOM     13  N1  <0> d   1       8.160  -2.946  -2.445  0.00  0.00     0.096 N 
ATOM     14  C20 <0> d   1       8.910  -2.490  -3.623  0.00  0.00     0.303 C 
ATOM     15  C19 <0> d   1       8.541  -3.361  -4.827  0.00  0.00     0.302 C 
ATOM     16  N2  <0> d   1       8.845  -4.766  -4.524  0.00  0.00     0.093 N 
ATOM     17  C18 <0> d   1       8.095  -5.222  -3.345  0.00  0.00     0.302 C 
ATOM     18  C17 <0> d   1       8.464  -4.352  -2.142  0.00  0.00     0.303 C 
BRANCH  16  19
ATOM     19  C21 <0> d   1       8.575  -5.625  -5.684  0.00  0.00     0.298 C 
BRANCH  19  20
ATOM     20  C22 <0> d   1       9.550  -5.280  -6.812  0.00  0.00     0.194 C 
BRANCH  20  21
ATOM     21  O3  <0> d   1      10.882  -5.602  -6.406  0.00  0.00    -0.399 OA
ATOM     22  H23 <0> d   1      11.554  -5.409  -7.073  0.00  0.00     0.209 HD
ENDBRANCH  20  21
ENDBRANCH  19  20
ENDBRANCH  16  19
ENDBRANCH  12  13
ENDBRANCH   7  12
BRANCH   6  23
ATOM     23  O4  <0> d   1       8.992  -4.040   0.668  0.00  0.00    -0.360 OA
ATOM     24  H24 <0> d   1       8.963  -4.845   0.133  0.00  0.00     0.217 HD
ENDBRANCH   6  23
BRANCH   1  25
ATOM     25  C4  <0> d   1       2.403   0.033  -0.021  0.00  0.00    -0.020 A 
ATOM     26  C3  <0> d   1       2.377   1.427  -0.013  0.00  0.00     0.012 A 
ATOM     27  C2  <0> d   1       1.169   2.093   0.002  0.00  0.00     0.001 A 
ATOM     28  C1  <0> d   1      -0.017   1.379   0.010  0.00  0.00     0.000 A 
ATOM     29  C6  <0> d   1       0.002  -0.004   0.002  0.00  0.00     0.001 A 
ATOM     30  C5  <0> d   1       1.205  -0.680  -0.013  0.00  0.00     0.012 A 
ENDBRANCH   1  25
TORSDOF 7
