REMARK  7 active torsions:
REMARK  status: ('A' for Active; 'I' for Inactive)
REMARK    1  A    between atoms: C2_2  and  C3_3 
REMARK    2  A    between atoms: C5_5  and  C15_19 
REMARK    3  A    between atoms: C6_6  and  O2_18 
REMARK    4  A    between atoms: C7_7  and  C9_10 
REMARK    5  A    between atoms: C8_8  and  O1_9 
REMARK    6  A    between atoms: C9_10  and  N1_11 
REMARK    7  A    between atoms: C17_23  and  C18_24 
ROOT
ATOM      1  C3  <0> d   1       0.731  -0.503   1.223  0.00  0.00    -0.024 A 
ATOM      2  C4  <0> d   1       2.071  -0.806   1.145  0.00  0.00     0.026 A 
ATOM      3  C5  <0> d   1       2.750  -1.269   2.279  0.00  0.00     0.026 A 
ATOM      4  C6  <0> d   1       2.056  -1.423   3.491  0.00  0.00     0.088 A 
ATOM      5  C7  <0> d   1       0.709  -1.115   3.554  0.00  0.00     0.038 A 
ATOM      6  C8  <0> d   1       0.048  -0.651   2.426  0.00  0.00     0.082 A 
ENDROOT
BRANCH   3   7
ATOM      7  C15 <0> d   1       4.179  -1.594   2.201  0.00  0.00     0.087 A 
ATOM      8  C17 <0> d   1       5.076  -1.489   0.983  0.00  0.00     0.159 A 
ATOM      9  C16 <0> d   1       6.425  -1.947   1.500  0.00  0.00     0.048 A 
ATOM     10  N4  <0> d   1       6.251  -2.243   2.747  0.00  0.00    -0.158 NA
ATOM     11  C26 <0> d   1       7.709  -2.046   0.718  0.00  0.00     0.069 C 
ATOM     12  N3  <0> d   1       4.940  -2.038   3.165  0.00  0.00    -0.153 NA
BRANCH   8  13
ATOM     13  C18 <0> d   1       4.588  -2.397  -0.116  0.00  0.00     0.123 A 
ATOM     14  N6  <0> d   1       4.205  -1.986  -1.354  0.00  0.00    -0.337 N 
ATOM     15  C24 <0> d   1       3.832  -3.110  -2.063  0.00  0.00     0.064 A 
ATOM     16  C25 <0> d   1       4.193  -0.606  -1.846  0.00  0.00     0.158 C 
ATOM     17  C19 <0> d   1       4.003  -4.195  -1.188  0.00  0.00     0.085 A 
ATOM     18  C23 <0> d   1       3.363  -3.329  -3.352  0.00  0.00     0.032 A 
ATOM     19  N5  <0> d   1       4.468  -3.689  -0.016  0.00  0.00    -0.232 NA
ATOM     20  C20 <0> d   1       3.698  -5.487  -1.625  0.00  0.00     0.034 A 
ATOM     21  C21 <0> d   1       3.237  -5.683  -2.896  0.00  0.00     0.002 A 
ATOM     22  C22 <0> d   1       3.068  -4.612  -3.762  0.00  0.00     0.002 A 
ENDBRANCH   8  13
ENDBRANCH   3   7
BRANCH   4  23
ATOM     23  O2  <0> d   1       2.705  -1.872   4.595  0.00  0.00    -0.359 OA
ATOM     24  H22 <0> d   1       3.093  -1.170   5.135  0.00  0.00     0.217 HD
ENDBRANCH   4  23
BRANCH   1  25
ATOM     25  C2  <0> d   1       0.002  -0.004   0.002  0.00  0.00     0.037 C 
ATOM     26  C1  <0> d   1      -0.019   1.526   0.010  0.00  0.00     0.010 C 
ENDBRANCH   1  25
BRANCH   5  27
ATOM     27  C9  <0> d   1      -0.040  -1.277   4.852  0.00  0.00     0.317 C 
BRANCH  27  28
ATOM     28  N1  <0> d   1       0.031  -0.026   5.619  0.00  0.00     0.096 N 
ATOM     29  C13 <0> d   1      -0.879  -0.063   6.772  0.00  0.00     0.303 C 
ATOM     30  C12 <0> d   1      -0.835   1.284   7.497  0.00  0.00     0.302 C 
ATOM     31  N2  <0> d   1       0.544   1.562   7.925  0.00  0.00     0.087 N 
ATOM     32  C11 <0> d   1       1.453   1.599   6.771  0.00  0.00     0.302 C 
ATOM     33  C14 <0> d   1       0.615   2.813   8.691  0.00  0.00     0.310 C 
ATOM     34  C10 <0> d   1       1.409   0.252   6.046  0.00  0.00     0.303 C 
ENDBRANCH  27  28
ENDBRANCH   5  27
BRANCH   6  35
ATOM     35  O1  <0> d   1      -1.273  -0.345   2.494  0.00  0.00    -0.359 OA
ATOM     36  H8  <0> d   1      -1.860  -1.087   2.296  0.00  0.00     0.217 HD
ENDBRANCH   6  35
TORSDOF 7
