REMARK  3 active torsions:
REMARK  status: ('A' for Active; 'I' for Inactive)
REMARK    1  A    between atoms: N2_5  and  C6_8 
REMARK    2  A    between atoms: C6_8  and  C7_9 
REMARK    3  A    between atoms: C14_18  and  O3_20 
ROOT
ATOM      1  C7  <0> d   1      -0.510   3.252   3.658  0.00  0.00    -0.014 A 
ATOM      2  C8  <0> d   1      -0.779   2.202   4.477  0.00  0.00     0.092 A 
ATOM      3  C9  <0> d   1       0.071   1.927   5.567  0.00  0.00     0.288 A 
ATOM      4  O1  <0> d   1      -0.179   0.979   6.290  0.00  0.00    -0.260 OA
ATOM      5  O2  <0> d   1       1.145   2.686   5.833  0.00  0.00    -0.275 OA
ATOM      6  C10 <0> d   1       1.466   3.748   5.062  0.00  0.00     0.093 A 
ATOM      7  C11 <0> d   1       0.664   4.077   3.954  0.00  0.00     0.008 A 
ATOM      8  C12 <0> d   1       0.992   5.176   3.153  0.00  0.00     0.041 A 
ATOM      9  C13 <0> d   1       2.093   5.928   3.451  0.00  0.00     0.068 A 
ATOM     10  C14 <0> d   1       2.891   5.607   4.548  0.00  0.00     0.090 A 
ATOM     11  C15 <0> d   1       2.579   4.522   5.351  0.00  0.00     0.076 A 
ATOM     12 Cl1  <0> d   1       2.500   7.293   2.458  0.00  0.00    -0.081 Cl
ENDROOT
BRANCH   1  13
ATOM     13  C6  <0> d   1      -1.399   3.565   2.482  0.00  0.00     0.274 C 
BRANCH  13  14
ATOM     14  N2  <0> d   1      -0.783   3.048   1.252  0.00  0.00    -0.064 N 
ATOM     15  C3  <0> d   1      -0.730   1.580   1.267  0.00  0.00     0.265 C 
ATOM     16  C2  <0> d   1      -0.013   1.086   0.008  0.00  0.00     0.299 C 
ATOM     17  N1  <0> d   1      -0.724   1.573  -1.182  0.00  0.00     0.087 N 
ATOM     18  C1  <0> d   1      -0.109   1.057  -2.412  0.00  0.00     0.310 C 
ATOM     19  C5  <0> d   1      -0.777   3.042  -1.196  0.00  0.00     0.299 C 
ATOM     20  C4  <0> d   1      -1.495   3.536   0.062  0.00  0.00     0.265 C 
ATOM     21  H18 <0> d   1       0.249   3.425   1.208  0.00  0.00     0.280 HD
ENDBRANCH  13  14
ENDBRANCH   1  13
BRANCH  10  22
ATOM     22  O3  <0> d   1       3.981   6.364   4.832  0.00  0.00    -0.359 OA
ATOM     23  H17 <0> d   1       4.614   6.115   5.697  0.00  0.00     0.217 HD
ENDBRANCH  10  22
TORSDOF 3
