REMARK  3 active torsions:
REMARK  status: ('A' for Active; 'I' for Inactive)
REMARK    1  A    between atoms: C2_2  and  C3_3 
REMARK    2  A    between atoms: C20_25  and  C22_28 
REMARK    3  A    between atoms: C22_28  and  N3_29 
ROOT
ATOM      1  C3  <0> d   1      -0.017   1.387   0.010  0.00  0.00    -0.020 A 
ATOM      2  C4  <0> d   1       1.165   2.094   0.002  0.00  0.00     0.025 A 
ATOM      3  C5  <0> d   1       2.383   1.414  -0.013  0.00  0.00     0.012 A 
ATOM      4  C6  <0> d   1       3.658   2.148  -0.022  0.00  0.00     0.014 A 
ATOM      5  C7  <0> d   1       4.858   1.398  -0.038  0.00  0.00     0.070 A 
ATOM      6  C8  <0> d   1       6.069   2.086  -0.047  0.00  0.00     0.136 A 
ATOM      7  N1  <0> d   1       6.106   3.394  -0.040  0.00  0.00    -0.258 NA
ATOM      8  C9  <0> d   1       5.001   4.171  -0.025  0.00  0.00     0.088 A 
ATOM      9  C10 <0> d   1       3.752   3.530  -0.016  0.00  0.00     0.049 A 
ATOM     10  S1  <0> d   1       2.569   4.850   0.004  0.00  0.00    -0.066 SA
ATOM     11  C11 <0> d   1       3.683   6.233  -0.000  0.00  0.00     0.111 A 
ATOM     12  C12 <0> d   1       4.961   5.648  -0.017  0.00  0.00     0.036 A 
ATOM     13  C13 <0> d   1       6.060   6.536  -0.023  0.00  0.00    -0.045 A 
ATOM     14  C14 <0> d   1       5.822   7.893  -0.013  0.00  0.00     0.034 A 
ATOM     15  C15 <0> d   1       4.523   8.373   0.003  0.00  0.00     0.032 A 
ATOM     16  N2  <0> d   1       3.502   7.536   0.009  0.00  0.00    -0.246 NA
ATOM     17  C16 <0> d   1       4.274   9.859   0.013  0.00  0.00     0.070 C 
ATOM     18  C17 <0> d   1       7.471   6.007  -0.041  0.00  0.00     0.049 C 
ATOM     19  C18 <0> d   1       4.772  -0.065  -0.046  0.00  0.00     0.301 A 
ATOM     20  O1  <0> d   1       5.789  -0.731  -0.060  0.00  0.00    -0.259 OA
ATOM     21  O2  <0> d   1       3.573  -0.672  -0.037  0.00  0.00    -0.273 OA
ATOM     22  C19 <0> d   1       2.405   0.009  -0.022  0.00  0.00     0.101 A 
ATOM     23  C20 <0> d   1       1.206  -0.689  -0.014  0.00  0.00     0.040 A 
ATOM     24  C21 <0> d   1       0.002  -0.004   0.002  0.00  0.00     0.124 A 
ATOM     25  O3  <0> d   1      -1.167  -0.695   0.009  0.00  0.00    -0.191 OA
ENDROOT
BRANCH  23  26
ATOM     26  C22 <0> d   1       1.213  -2.196  -0.022  0.00  0.00     0.279 C 
BRANCH  26  27
ATOM     27  N3  <0> d   1       1.202  -2.677  -1.410  0.00  0.00    -0.067 N 
ATOM     28  C27 <0> d   1       1.446  -4.124  -1.467  0.00  0.00     0.235 C 
ATOM     29  C26 <0> d   1       1.284  -4.614  -2.907  0.00  0.00     0.032 C 
ATOM     30  C25 <0> d   1       2.277  -3.874  -3.808  0.00  0.00    -0.015 C 
ATOM     31  C24 <0> d   1       2.032  -2.367  -3.693  0.00  0.00     0.032 C 
ATOM     32  C28 <0> d   1       2.078  -4.316  -5.259  0.00  0.00     0.010 C 
ATOM     33  C23 <0> d   1       2.173  -1.942  -2.230  0.00  0.00     0.235 C 
ATOM     34  H29 <0> d   1       0.201  -2.490  -1.827  0.00  0.00     0.280 HD
ENDBRANCH  26  27
ENDBRANCH  23  26
BRANCH   1  35
ATOM     35  C2  <0> d   1      -1.333   2.122   0.020  0.00  0.00     0.037 C 
ATOM     36  C1  <0> d   1      -1.832   2.253   1.460  0.00  0.00     0.010 C 
ENDBRANCH   1  35
TORSDOF 3
