REMARK  6 active torsions:
REMARK  status: ('A' for Active; 'I' for Inactive)
REMARK    1  A    between atoms: O1_2  and  C2_3 
REMARK    2  A    between atoms: C5_6  and  C8_9 
REMARK    3  A    between atoms: C14_16  and  O4_33 
REMARK    4  A    between atoms: C15_17  and  C17_20 
REMARK    5  A    between atoms: C17_20  and  N1_21 
REMARK    6  A    between atoms: C22_26  and  C23_27 
ROOT
ATOM      1  C8  <0> d   1      -3.684  -1.875  -0.547  0.00  0.00     0.053 C 
ATOM      2  C9  <0> d   1      -3.977  -3.194  -0.685  0.00  0.00     0.127 A 
ATOM      3  C10 <0> d   1      -5.297  -3.762  -0.997  0.00  0.00     0.218 A 
ATOM      4  O2  <0> d   1      -6.342  -3.162  -1.182  0.00  0.00    -0.284 OA
ATOM      5  C11 <0> d   1      -5.073  -5.218  -1.035  0.00  0.00     0.051 A 
ATOM      6  C12 <0> d   1      -5.912  -6.307  -1.275  0.00  0.00     0.021 A 
ATOM      7  C13 <0> d   1      -5.408  -7.576  -1.242  0.00  0.00     0.038 A 
ATOM      8  C14 <0> d   1      -4.058  -7.785  -0.970  0.00  0.00     0.076 A 
ATOM      9  C15 <0> d   1      -3.213  -6.714  -0.729  0.00  0.00     0.038 A 
ATOM     10  C16 <0> d   1      -3.711  -5.417  -0.759  0.00  0.00     0.101 A 
ATOM     11  O3  <0> d   1      -3.106  -4.224  -0.568  0.00  0.00    -0.305 OA
ENDROOT
BRANCH   9  12
ATOM     12  C17 <0> d   1      -1.755  -6.955  -0.435  0.00  0.00     0.317 C 
BRANCH  12  13
ATOM     13  N1  <0> d   1      -1.587  -7.260   0.992  0.00  0.00     0.101 N 
ATOM     14  C22 <0> d   1      -0.234  -7.760   1.268  0.00  0.00     0.257 C 
ATOM     15  C21 <0> d   1      -0.141  -8.203   2.730  0.00  0.00     0.041 C 
ATOM     16  C20 <0> d   1      -0.461  -7.014   3.640  0.00  0.00     0.004 C 
ATOM     17  C19 <0> d   1      -1.856  -6.482   3.299  0.00  0.00     0.030 C 
ATOM     18  C18 <0> d   1      -1.900  -6.089   1.821  0.00  0.00     0.273 C 
BRANCH  14  19
ATOM     19  C23 <0> d   1       0.061  -8.932   0.368  0.00  0.00    -0.007 A 
ATOM     20  C27 <0> d   1      -0.862  -9.950   0.219  0.00  0.00     0.125 A 
ATOM     21  N2  <0> d   1      -0.614 -10.976  -0.571  0.00  0.00    -0.273 NA
ATOM     22  C26 <0> d   1       0.520 -11.080  -1.237  0.00  0.00     0.116 A 
ATOM     23  C25 <0> d   1       1.493 -10.103  -1.133  0.00  0.00     0.020 A 
ATOM     24  C24 <0> d   1       1.265  -9.007  -0.316  0.00  0.00     0.012 A 
ENDBRANCH  14  19
ENDBRANCH  12  13
ENDBRANCH   9  12
BRANCH   8  25
ATOM     25  O4  <0> d   1      -3.566  -9.050  -0.939  0.00  0.00    -0.360 OA
ATOM     26  H26 <0> d   1      -3.242  -9.366  -1.793  0.00  0.00     0.217 HD
ENDBRANCH   8  25
BRANCH   1  27
ATOM     27  C5  <0> d   1      -2.292  -1.450  -0.356  0.00  0.00    -0.033 A 
ATOM     28  C4  <0> d   1      -1.971  -0.086  -0.329  0.00  0.00     0.014 A 
ATOM     29  C3  <0> d   1      -0.665   0.307  -0.150  0.00  0.00     0.037 A 
ATOM     30  C2  <0> d   1       0.336  -0.645   0.005  0.00  0.00     0.068 A 
ATOM     31  C7  <0> d   1       0.024  -2.000  -0.026  0.00  0.00     0.037 A 
ATOM     32  C6  <0> d   1      -1.279  -2.405  -0.200  0.00  0.00     0.014 A 
BRANCH  30  33
ATOM     33  O1  <0> d   1       1.623  -0.251   0.181  0.00  0.00    -0.356 OA
ATOM     34  C1  <0> d   1       1.874   1.155   0.203  0.00  0.00     0.210 C 
ENDBRANCH  30  33
ENDBRANCH   1  27
TORSDOF 6
