REMARK  6 active torsions:
REMARK  status: ('A' for Active; 'I' for Inactive)
REMARK    1  A    between atoms: C9_10  and  C10_11 
REMARK    2  A    between atoms: C13_14  and  O3_19 
REMARK    3  A    between atoms: C14_15  and  O2_17 
REMARK    4  A    between atoms: N1_24  and  C21_27 
REMARK    5  A    between atoms: C21_27  and  C22_28 
REMARK    6  A    between atoms: C22_28  and  O6_29 
ROOT
ATOM      1  C1  <0> d   1       1.707  -5.163  -0.025  0.00  0.00     0.054 C 
ATOM      2  C2  <0> d   1       0.210  -5.330  -0.066  0.00  0.00     0.007 A 
ATOM      3  C3  <0> d   1      -0.341  -6.591  -0.247  0.00  0.00     0.087 A 
ATOM      4  C4  <0> d   1      -1.722  -6.756  -0.285  0.00  0.00     0.005 A 
ATOM      5  C5  <0> d   1      -2.547  -5.674  -0.146  0.00  0.00     0.030 A 
ATOM      6  C6  <0> d   1      -2.006  -4.402   0.037  0.00  0.00     0.052 A 
ATOM      7  C7  <0> d   1      -0.614  -4.221   0.079  0.00  0.00     0.099 A 
ATOM      8  O1  <0> d   1      -0.329  -2.914   0.265  0.00  0.00    -0.305 OA
ATOM      9  C8  <0> d   1      -1.452  -2.163   0.355  0.00  0.00     0.127 A 
ATOM     10  C9  <0> d   1      -1.505  -0.819   0.540  0.00  0.00     0.053 C 
ATOM     11  C18 <0> d   1      -2.603  -3.067   0.221  0.00  0.00     0.218 A 
ATOM     12  O4  <0> d   1      -3.787  -2.777   0.253  0.00  0.00    -0.284 OA
ATOM     13  C19 <0> d   1      -2.329  -8.123  -0.474  0.00  0.00     0.316 C 
ATOM     14  N1  <0> d   1      -1.314  -9.044  -1.006  0.00  0.00     0.118 N 
ATOM     15  C20 <0> d   1      -0.081  -8.955  -0.207  0.00  0.00     0.448 C 
ATOM     16  O5  <0> d   1       0.489  -7.657  -0.390  0.00  0.00    -0.320 OA
ENDROOT
BRANCH  10  17
ATOM     17  C10 <0> d   1      -0.267  -0.030   0.548  0.00  0.00    -0.031 A 
ATOM     18  C15 <0> d   1      -0.325   1.368   0.611  0.00  0.00     0.051 A 
ATOM     19  C14 <0> d   1       0.842   2.105   0.619  0.00  0.00     0.102 A 
ATOM     20  C13 <0> d   1       2.076   1.457   0.563  0.00  0.00     0.101 A 
ATOM     21  C12 <0> d   1       2.136   0.071   0.501  0.00  0.00     0.040 A 
ATOM     22  C11 <0> d   1       0.976  -0.672   0.493  0.00  0.00     0.014 A 
BRANCH  19  23
ATOM     23  O2  <0> d   1       0.790   3.462   0.679  0.00  0.00    -0.353 OA
ATOM     24  C16 <0> d   1      -0.508   4.059   0.733  0.00  0.00     0.210 C 
ENDBRANCH  19  23
BRANCH  20  25
ATOM     25  O3  <0> d   1       3.224   2.184   0.571  0.00  0.00    -0.353 OA
ATOM     26  C17 <0> d   1       4.453   1.457   0.512  0.00  0.00     0.210 C 
ENDBRANCH  20  25
ENDBRANCH  10  17
BRANCH  14  27
ATOM     27  C21 <0> d   1      -1.821 -10.422  -1.042  0.00  0.00     0.301 C 
BRANCH  27  28
ATOM     28  C22 <0> d   1      -3.152 -10.457  -1.794  0.00  0.00     0.197 C 
BRANCH  28  29
ATOM     29  O6  <0> d   1      -2.944 -10.059  -3.151  0.00  0.00    -0.394 OA
ATOM     30  C23 <0> d   1      -4.131 -10.057  -3.945  0.00  0.00     0.201 C 
ENDBRANCH  28  29
ENDBRANCH  27  28
ENDBRANCH  14  27
TORSDOF 6
