REMARK  7 active torsions:
REMARK  status: ('A' for Active; 'I' for Inactive)
REMARK    1  A    between atoms: C3_3  and  C18_24 
REMARK    2  A    between atoms: C8_9  and  O4_23 
REMARK    3  A    between atoms: C9_10  and  C11_13 
REMARK    4  A    between atoms: C11_13  and  N1_14 
REMARK    5  A    between atoms: N2_17  and  C16_20 
REMARK    6  A    between atoms: C16_20  and  C17_21 
REMARK    7  A    between atoms: C17_21  and  O3_22 
ROOT
ATOM      1  C1  <0> d   1      -3.921   2.227  -0.086  0.00  0.00     0.077 C 
ATOM      2  C2  <0> d   1      -2.551   2.854  -0.051  0.00  0.00     0.065 A 
ATOM      3  C3  <0> d   1      -2.454   4.208  -0.036  0.00  0.00     0.054 A 
ATOM      4  C4  <0> d   1      -1.115   4.821  -0.001  0.00  0.00     0.198 A 
ATOM      5  O1  <0> d   1      -0.966   6.031   0.014  0.00  0.00    -0.286 OA
ATOM      6  C5  <0> d   1       0.036   3.900   0.016  0.00  0.00     0.050 A 
ATOM      7  C6  <0> d   1       1.346   4.380   0.049  0.00  0.00     0.021 A 
ATOM      8  C7  <0> d   1       2.390   3.499   0.064  0.00  0.00     0.038 A 
ATOM      9  C8  <0> d   1       2.152   2.127   0.046  0.00  0.00     0.076 A 
ATOM     10  C9  <0> d   1       0.858   1.636   0.013  0.00  0.00     0.038 A 
ATOM     11  C10 <0> d   1      -0.214   2.517  -0.008  0.00  0.00     0.100 A 
ATOM     12  O2  <0> d   1      -1.481   2.056  -0.034  0.00  0.00    -0.313 OA
ENDROOT
BRANCH  10  13
ATOM     13  C11 <0> d   1       0.615   0.149  -0.006  0.00  0.00     0.317 C 
BRANCH  13  14
ATOM     14  N1  <0> d   1       0.505  -0.348   1.372  0.00  0.00     0.096 N 
ATOM     15  C15 <0> d   1       0.035  -1.740   1.395  0.00  0.00     0.303 C 
ATOM     16  C14 <0> d   1      -0.141  -2.192   2.846  0.00  0.00     0.302 C 
ATOM     17  N2  <0> d   1       1.138  -2.060   3.557  0.00  0.00     0.093 N 
ATOM     18  C13 <0> d   1       1.609  -0.668   3.534  0.00  0.00     0.302 C 
ATOM     19  C12 <0> d   1       1.785  -0.215   2.083  0.00  0.00     0.303 C 
BRANCH  17  20
ATOM     20  C16 <0> d   1       1.029  -2.556   4.935  0.00  0.00     0.298 C 
BRANCH  20  21
ATOM     21  C17 <0> d   1       1.020  -4.086   4.927  0.00  0.00     0.194 C 
BRANCH  21  22
ATOM     22  O3  <0> d   1       2.275  -4.568   4.443  0.00  0.00    -0.399 OA
ATOM     23  H20 <0> d   1       2.456  -5.650   4.365  0.00  0.00     0.209 HD
ENDBRANCH  21  22
ENDBRANCH  20  21
ENDBRANCH  17  20
ENDBRANCH  13  14
ENDBRANCH  10  13
BRANCH   9  24
ATOM     24  O4  <0> d   1       3.199   1.262   0.061  0.00  0.00    -0.360 OA
ATOM     25  H21 <0> d   1       3.017   0.178   0.047  0.00  0.00     0.217 HD
ENDBRANCH   9  24
BRANCH   3  26
ATOM     26  C18 <0> d   1      -3.672   5.054  -0.055  0.00  0.00    -0.019 A 
ATOM     27  C23 <0> d   1      -3.932   5.882  -1.146  0.00  0.00     0.012 A 
ATOM     28  C22 <0> d   1      -5.067   6.667  -1.158  0.00  0.00     0.001 A 
ATOM     29  C21 <0> d   1      -5.946   6.634  -0.090  0.00  0.00     0.000 A 
ATOM     30  C20 <0> d   1      -5.692   5.815   0.996  0.00  0.00     0.001 A 
ATOM     31  C19 <0> d   1      -4.564   5.021   1.016  0.00  0.00     0.012 A 
ENDBRANCH   3  26
TORSDOF 7
