REMARK  2 active torsions:
REMARK  status: ('A' for Active; 'I' for Inactive)
REMARK    1  A    between atoms: C9_10  and  C10_11 
REMARK    2  A    between atoms: N1_20  and  C19_23 
ROOT
ATOM      1  C1  <0> d   1      -1.103   5.885  -0.050  0.00  0.00     0.054 C 
ATOM      2  C2  <0> d   1      -1.605   4.464  -0.045  0.00  0.00     0.007 A 
ATOM      3  C3  <0> d   1      -2.970   4.212  -0.065  0.00  0.00     0.087 A 
ATOM      4  C4  <0> d   1      -3.445   2.905  -0.065  0.00  0.00     0.005 A 
ATOM      5  C5  <0> d   1      -2.566   1.856  -0.051  0.00  0.00     0.030 A 
ATOM      6  C6  <0> d   1      -1.193   2.095  -0.038  0.00  0.00     0.052 A 
ATOM      7  C7  <0> d   1      -0.701   3.411  -0.036  0.00  0.00     0.099 A 
ATOM      8  O1  <0> d   1       0.650   3.393  -0.029  0.00  0.00    -0.305 OA
ATOM      9  C8  <0> d   1       1.137   2.129  -0.020  0.00  0.00     0.127 A 
ATOM     10  C9  <0> d   1       2.445   1.775  -0.010  0.00  0.00     0.053 C 
ATOM     11  C16 <0> d   1      -0.014   1.211  -0.021  0.00  0.00     0.218 A 
ATOM     12  O2  <0> d   1       0.005  -0.008  -0.016  0.00  0.00    -0.284 OA
ATOM     13  C17 <0> d   1      -4.926   2.622  -0.081  0.00  0.00     0.317 C 
ATOM     14  N1  <0> d   1      -5.662   3.830   0.319  0.00  0.00     0.121 N 
ATOM     15  C18 <0> d   1      -5.186   4.992  -0.450  0.00  0.00     0.448 C 
ATOM     16  O3  <0> d   1      -3.833   5.263  -0.075  0.00  0.00    -0.320 OA
ENDROOT
BRANCH  10  17
ATOM     17  C10 <0> d   1       3.487   2.805  -0.126  0.00  0.00    -0.034 A 
ATOM     18  C15 <0> d   1       3.139   4.161  -0.117  0.00  0.00     0.011 A 
ATOM     19  C14 <0> d   1       4.122   5.121  -0.226  0.00  0.00     0.001 A 
ATOM     20  C13 <0> d   1       5.450   4.748  -0.343  0.00  0.00     0.000 A 
ATOM     21  C12 <0> d   1       5.802   3.409  -0.352  0.00  0.00     0.001 A 
ATOM     22  C11 <0> d   1       4.832   2.437  -0.239  0.00  0.00     0.011 A 
ENDBRANCH  10  17
BRANCH  14  23
ATOM     23  C19 <0> d   1      -7.109   3.644   0.149  0.00  0.00     0.240 C 
ATOM     24  C22 <0> d   1      -7.866   4.888   0.699  0.00  0.00     0.176 C 
ATOM     25  S1  <0> d   1      -9.488   4.699  -0.155  0.00  0.00     0.146 S 
ATOM     26  C21 <0> d   1      -8.971   3.628  -1.558  0.00  0.00     0.142 C 
ATOM     27  O4  <0> d   1     -10.370   3.967   0.684  0.00  0.00    -0.228 OA
ATOM     28  O5  <0> d   1      -9.893   5.964  -0.662  0.00  0.00    -0.228 OA
ATOM     29  C20 <0> d   1      -7.444   3.502  -1.345  0.00  0.00     0.052 C 
ENDBRANCH  14  23
TORSDOF 2
