REMARK  5 active torsions:
REMARK  status: ('A' for Active; 'I' for Inactive)
REMARK    1  A    between atoms: C6_6  and  C7_7 
REMARK    2  A    between atoms: C13_15  and  O2_19 
REMARK    3  A    between atoms: O2_19  and  C16_20 
REMARK    4  A    between atoms: C16_20  and  C17_21 
REMARK    5  A    between atoms: C17_21  and  N3_22 
ROOT
ATOM      1  C7  <0> d   1      -2.289  -0.871   0.661  0.00  0.00     0.020 A 
ATOM      2  C8  <0> d   1      -3.211  -1.065  -0.346  0.00  0.00     0.121 A 
ATOM      3  N1  <0> d   1      -3.609  -2.362  -0.321  0.00  0.00    -0.310 N 
ATOM      4  N2  <0> d   1      -2.935  -3.017   0.718  0.00  0.00    -0.299 N 
ATOM      5  C9  <0> d   1      -2.114  -2.106   1.326  0.00  0.00     0.074 A 
ATOM      6  C10 <0> d   1      -1.252  -2.353   2.421  0.00  0.00     0.043 A 
ATOM      7  C11 <0> d   1      -1.519  -3.409   3.307  0.00  0.00     0.020 A 
ATOM      8  C12 <0> d   1      -0.688  -3.645   4.360  0.00  0.00     0.038 A 
ATOM      9  C13 <0> d   1       0.438  -2.846   4.573  0.00  0.00     0.072 A 
ATOM     10  C14 <0> d   1       0.728  -1.800   3.720  0.00  0.00     0.092 A 
ATOM     11  C15 <0> d   1      -0.107  -1.541   2.628  0.00  0.00     0.187 A 
ATOM     12  O1  <0> d   1       0.144  -0.618   1.861  0.00  0.00    -0.287 OA
ATOM     13  H6  <0> d   1      -4.253  -2.768  -0.921  0.00  0.00     0.186 HD
ATOM     14  H7  <0> d   1      -3.030  -3.951   0.961  0.00  0.00     0.187 HD
ENDROOT
BRANCH   1  15
ATOM     15  C6  <0> d   1      -1.601   0.402   0.984  0.00  0.00    -0.022 A 
ATOM     16  C1  <0> d   1      -1.845   1.040   2.199  0.00  0.00     0.014 A 
ATOM     17  C2  <0> d   1      -1.202   2.225   2.495  0.00  0.00     0.024 A 
ATOM     18  C3  <0> d   1      -0.315   2.779   1.588  0.00  0.00     0.034 A 
ATOM     19  C4  <0> d   1      -0.069   2.149   0.380  0.00  0.00     0.024 A 
ATOM     20 Cl1  <0> d   1       0.491   4.269   1.966  0.00  0.00    -0.084 Cl
ATOM     21  C5  <0> d   1      -0.707   0.964   0.074  0.00  0.00     0.014 A 
ENDBRANCH   1  15
BRANCH   9  22
ATOM     22  O2  <0> d   1       1.253  -3.099   5.628  0.00  0.00    -0.349 OA
BRANCH  22  23
ATOM     23  C16 <0> d   1       2.387  -2.246   5.792  0.00  0.00     0.203 C 
BRANCH  23  24
ATOM     24  C17 <0> d   1       3.181  -2.682   7.025  0.00  0.00     0.261 C 
BRANCH  24  25
ATOM     25  N3  <0> d   1       3.702  -4.040   6.816  0.00  0.00    -0.065 N 
ATOM     26  C21 <0> d   1       4.692  -4.023   5.731  0.00  0.00     0.261 C 
ATOM     27  C20 <0> d   1       5.234  -5.439   5.516  0.00  0.00     0.195 C 
ATOM     28  O3  <0> d   1       5.801  -5.918   6.738  0.00  0.00    -0.388 OA
ATOM     29  C19 <0> d   1       4.880  -5.930   7.833  0.00  0.00     0.195 C 
ATOM     30  C18 <0> d   1       4.339  -4.516   8.052  0.00  0.00     0.261 C 
ATOM     31  H23 <0> d   1       2.943  -4.657   6.570  0.00  0.00     0.280 HD
ENDBRANCH  24  25
ENDBRANCH  23  24
ENDBRANCH  22  23
ENDBRANCH   9  22
TORSDOF 5
