REMARK  2 active torsions:
REMARK  status: ('A' for Active; 'I' for Inactive)
REMARK    1  A    between atoms: C6_6  and  C7_7 
REMARK    2  A    between atoms: N1_19  and  C18_22 
ROOT
ATOM      1  C7  <0> d   1      -1.257  -0.758   0.010  0.00  0.00     0.053 C 
ATOM      2  C8  <0> d   1      -2.440  -0.102   0.128  0.00  0.00     0.127 A 
ATOM      3  C9  <0> d   1      -2.627   1.356   0.145  0.00  0.00     0.218 A 
ATOM      4  O1  <0> d   1      -1.770   2.219   0.060  0.00  0.00    -0.284 OA
ATOM      5  C10 <0> d   1      -4.082   1.541   0.290  0.00  0.00     0.051 A 
ATOM      6  C11 <0> d   1      -4.899   2.669   0.371  0.00  0.00     0.021 A 
ATOM      7  C12 <0> d   1      -6.249   2.523   0.505  0.00  0.00     0.038 A 
ATOM      8  C13 <0> d   1      -6.817   1.251   0.561  0.00  0.00     0.081 A 
ATOM      9  C14 <0> d   1      -6.019   0.123   0.481  0.00  0.00     0.036 A 
ATOM     10  C15 <0> d   1      -4.641   0.254   0.345  0.00  0.00     0.101 A 
ATOM     11  O2  <0> d   1      -3.663  -0.672   0.244  0.00  0.00    -0.305 OA
ATOM     12  C16 <0> d   1      -6.625  -1.256   0.537  0.00  0.00     0.282 C 
ATOM     13  N1  <0> d   1      -7.977  -1.181   1.105  0.00  0.00    -0.042 N 
ATOM     14  C17 <0> d   1      -8.736  -0.141   0.392  0.00  0.00     0.410 C 
ATOM     15  O3  <0> d   1      -8.165   1.133   0.696  0.00  0.00    -0.323 OA
ATOM     16  H24 <0> d   1      -7.920  -0.946   2.084  0.00  0.00     0.283 HD
ENDROOT
BRANCH   1  17
ATOM     17  C6  <0> d   1       0.005  -0.012   0.075  0.00  0.00    -0.031 A 
ATOM     18  C1  <0> d   1       0.153   1.041   0.987  0.00  0.00     0.014 A 
ATOM     19  C2  <0> d   1       1.339   1.738   1.046  0.00  0.00     0.040 A 
ATOM     20  C3  <0> d   1       2.391   1.403   0.203  0.00  0.00     0.105 A 
ATOM     21  O5  <0> d   1       3.642   1.930   0.070  0.00  0.00    -0.323 OA
ATOM     22  C4  <0> d   1       2.251   0.354  -0.709  0.00  0.00     0.105 A 
ATOM     23  C24 <0> d   1       4.121   1.468  -1.206  0.00  0.00     0.352 C 
ATOM     24  O4  <0> d   1       3.416   0.230  -1.410  0.00  0.00    -0.323 OA
ATOM     25  C5  <0> d   1       1.066  -0.350  -0.775  0.00  0.00     0.051 A 
ENDBRANCH   1  17
BRANCH  13  26
ATOM     26  C18 <0> d   1      -8.650  -2.477   0.946  0.00  0.00     0.191 C 
ATOM     27  C23 <0> d   1      -7.851  -3.559   1.675  0.00  0.00     0.033 C 
ATOM     28  C22 <0> d   1      -8.552  -4.909   1.510  0.00  0.00     0.002 C 
ATOM     29  C21 <0> d   1      -9.960  -4.829   2.102  0.00  0.00     0.000 C 
ATOM     30  C20 <0> d   1     -10.759  -3.747   1.373  0.00  0.00     0.002 C 
ATOM     31  C19 <0> d   1     -10.059  -2.397   1.538  0.00  0.00     0.033 C 
ENDBRANCH  13  26
TORSDOF 2
