REMARK  8 active torsions:
REMARK  status: ('A' for Active; 'I' for Inactive)
REMARK    1  A    between atoms: O1_2  and  C2_3 
REMARK    2  A    between atoms: C5_6  and  O2_9 
REMARK    3  A    between atoms: O2_9  and  C8_10 
REMARK    4  A    between atoms: C10_15  and  C11_16 
REMARK    5  A    between atoms: C14_19  and  O4_23 
REMARK    6  A    between atoms: O4_23  and  C17_24 
REMARK    7  A    between atoms: C17_24  and  C18_25 
REMARK       I    between atoms: C18_25  and  N3_27 
REMARK    8  A    between atoms: N3_27  and  N4_28 
ROOT
ATOM      1  C11 <0> d   1       3.949  -4.082  -6.402  0.00  0.00     0.034 A 
ATOM      2  C12 <0> d   1       3.992  -2.715  -6.666  0.00  0.00     0.020 A 
ATOM      3  C13 <0> d   1       4.655  -2.250  -7.783  0.00  0.00     0.038 A 
ATOM      4  C14 <0> d   1       5.281  -3.141  -8.645  0.00  0.00     0.072 A 
ATOM      5  C15 <0> d   1       5.242  -4.504  -8.389  0.00  0.00     0.077 A 
ATOM      6  C16 <0> d   1       4.583  -4.979  -7.267  0.00  0.00     0.122 A 
ATOM      7  O3  <0> d   1       4.549  -6.313  -7.012  0.00  0.00    -0.191 OA
ENDROOT
BRANCH   1   8
ATOM      8  C10 <0> d   1       3.237  -4.585  -5.201  0.00  0.00     0.125 A 
ATOM      9  C8  <0> d   1       2.558  -3.796  -4.249  0.00  0.00     0.124 A 
ATOM     10  C9  <0> d   1       2.039  -4.628  -3.315  0.00  0.00     0.149 A 
ATOM     11  N1  <0> d   1       2.379  -5.899  -3.656  0.00  0.00    -0.286 N 
ATOM     12  H1  <0> d   1       2.143  -6.703  -3.167  0.00  0.00     0.188 HD
ATOM     13  N2  <0> d   1       3.131  -5.846  -4.837  0.00  0.00    -0.172 NA
BRANCH   9  14
ATOM     14  O2  <0> d   1       2.441  -2.439  -4.269  0.00  0.00    -0.307 OA
BRANCH  14  15
ATOM     15  C5  <0> d   1       1.851  -1.834  -3.204  0.00  0.00     0.076 A 
ATOM     16  C4  <0> d   1       2.498  -1.804  -1.977  0.00  0.00     0.040 A 
ATOM     17  C3  <0> d   1       1.898  -1.189  -0.895  0.00  0.00     0.039 A 
ATOM     18  C2  <0> d   1       0.650  -0.601  -1.035  0.00  0.00     0.068 A 
ATOM     19  C7  <0> d   1       0.001  -0.635  -2.261  0.00  0.00     0.039 A 
ATOM     20  C6  <0> d   1       0.602  -1.246  -3.344  0.00  0.00     0.040 A 
BRANCH  18  21
ATOM     21  O1  <0> d   1       0.060   0.004   0.030  0.00  0.00    -0.356 OA
ATOM     22  C1  <0> d   1       0.785   0.002   1.261  0.00  0.00     0.210 C 
ENDBRANCH  18  21
ENDBRANCH  14  15
ENDBRANCH   9  14
ENDBRANCH   1   8
BRANCH   4  23
ATOM     23  O4  <0> d   1       5.932  -2.677  -9.744  0.00  0.00    -0.342 OA
BRANCH  23  24
ATOM     24  C17 <0> d   1       6.553  -3.648 -10.588  0.00  0.00     0.279 C 
BRANCH  24  25
ATOM     25  C18 <0> d   1       7.221  -2.952 -11.746  0.00  0.00     0.255 C 
ATOM     26  O5  <0> d   1       7.170  -1.744 -11.839  0.00  0.00    -0.270 OA
ATOM     27  N3  <0> d   1       7.875  -3.673 -12.679  0.00  0.00    -0.292 N 
ATOM     28  H15 <0> d   1       7.916  -4.639 -12.604  0.00  0.00     0.183 HD
BRANCH  27  29
ATOM     29  N4  <0> d   1       8.481  -3.043 -13.729  0.00  0.00    -0.247 NA
ATOM     30  H16 <0> d   1       9.140  -2.351 -13.404  0.00  0.00     0.143 HD
ATOM     31  H17 <0> d   1       8.928  -3.708 -14.341  0.00  0.00     0.143 HD
ENDBRANCH  27  29
ENDBRANCH  24  25
ENDBRANCH  23  24
ENDBRANCH   4  23
TORSDOF 8
