REMARK  5 active torsions:
REMARK  status: ('A' for Active; 'I' for Inactive)
REMARK    1  A    between atoms: O1_2  and  C2_3 
REMARK    2  A    between atoms: C6_7  and  C8_9 
REMARK    3  A    between atoms: C14_16  and  O5_35 
REMARK    4  A    between atoms: C15_17  and  C17_20 
REMARK    5  A    between atoms: C17_20  and  N1_21 
ROOT
ATOM      1  C8  <0> d   1      -6.917   5.373   1.373  0.00  0.00     0.053 C 
ATOM      2  C9  <0> d   1      -5.642   5.564   1.794  0.00  0.00     0.127 A 
ATOM      3  C10 <0> d   1      -5.226   6.031   3.126  0.00  0.00     0.218 A 
ATOM      4  O2  <0> d   1      -5.939   6.325   4.070  0.00  0.00    -0.284 OA
ATOM      5  C11 <0> d   1      -3.754   6.065   3.063  0.00  0.00     0.051 A 
ATOM      6  C12 <0> d   1      -2.767   6.415   3.985  0.00  0.00     0.021 A 
ATOM      7  C13 <0> d   1      -1.449   6.345   3.631  0.00  0.00     0.038 A 
ATOM      8  C14 <0> d   1      -1.089   5.925   2.353  0.00  0.00     0.076 A 
ATOM      9  C15 <0> d   1      -2.059   5.574   1.428  0.00  0.00     0.038 A 
ATOM     10  C16 <0> d   1      -3.404   5.645   1.770  0.00  0.00     0.101 A 
ATOM     11  O3  <0> d   1      -4.520   5.359   1.065  0.00  0.00    -0.305 OA
ENDROOT
BRANCH   9  12
ATOM     12  C17 <0> d   1      -1.655   5.121   0.048  0.00  0.00     0.316 C 
BRANCH  12  13
ATOM     13  N1  <0> d   1      -1.474   3.663   0.045  0.00  0.00     0.093 N 
ATOM     14  C22 <0> d   1      -0.690   3.227   1.211  0.00  0.00     0.283 C 
ATOM     15  C21 <0> d   1      -0.689   1.689   1.235  0.00  0.00     0.065 C 
ATOM     16  C20 <0> d   1       0.050   1.196  -0.014  0.00  0.00     0.020 C 
ATOM     17  C23 <0> d   1      -2.130   1.234   1.172  0.00  0.00     0.020 A 
ATOM     18  C19 <0> d   1      -0.722   1.699  -1.238  0.00  0.00     0.033 C 
ATOM     19  C18 <0> d   1      -0.855   3.214  -1.206  0.00  0.00     0.279 C 
ATOM     20  C28 <0> d   1      -2.076   1.012  -1.298  0.00  0.00     0.138 C 
ATOM     21  N2  <0> d   1      -2.766   1.028  -0.004  0.00  0.00    -0.317 N 
ATOM     22  C27 <0> d   1      -4.096   0.766  -0.015  0.00  0.00     0.247 A 
ATOM     23  C26 <0> d   1      -4.792   0.552   1.183  0.00  0.00     0.074 A 
ATOM     24  O4  <0> d   1      -4.693   0.717  -1.078  0.00  0.00    -0.268 OA
ATOM     25  C25 <0> d   1      -4.129   0.677   2.368  0.00  0.00     0.007 A 
ATOM     26  C24 <0> d   1      -2.777   1.037   2.351  0.00  0.00     0.026 A 
ENDBRANCH  12  13
ENDBRANCH   9  12
BRANCH   8  27
ATOM     27  O5  <0> d   1       0.223   5.858   2.011  0.00  0.00    -0.360 OA
ATOM     28  H26 <0> d   1       0.512   5.527   1.003  0.00  0.00     0.217 HD
ENDBRANCH   8  27
BRANCH   1  29
ATOM     29  C6  <0> d   1      -7.183   5.012  -0.027  0.00  0.00    -0.031 A 
ATOM     30  C5  <0> d   1      -8.499   4.939  -0.496  0.00  0.00     0.011 A 
ATOM     31  C4  <0> d   1      -8.743   4.600  -1.810  0.00  0.00     0.004 A 
ATOM     32  C3  <0> d   1      -7.691   4.331  -2.667  0.00  0.00     0.037 A 
ATOM     33  C2  <0> d   1      -6.380   4.401  -2.212  0.00  0.00     0.069 A 
ATOM     34  C7  <0> d   1      -6.121   4.746  -0.897  0.00  0.00     0.048 A 
BRANCH  33  35
ATOM     35  O1  <0> d   1      -5.352   4.135  -3.060  0.00  0.00    -0.356 OA
ATOM     36  C1  <0> d   1      -5.692   3.791  -4.404  0.00  0.00     0.210 C 
ENDBRANCH  33  35
ENDBRANCH   1  29
TORSDOF 5
