REMARK  4 active torsions:
REMARK  status: ('A' for Active; 'I' for Inactive)
REMARK    1  A    between atoms: C3_3  and  C17_21 
REMARK    2  A    between atoms: C9_10  and  C11_13 
REMARK    3  A    between atoms: C11_13  and  N1_14 
REMARK    4  A    between atoms: N1_14  and  C12_15 
ROOT
ATOM      1  C1  <0> d   1       1.222  -2.147  -0.021  0.00  0.00     0.077 C 
ATOM      2  C2  <0> d   1       1.202  -0.640  -0.013  0.00  0.00     0.065 A 
ATOM      3  C3  <0> d   1       0.002  -0.004   0.002  0.00  0.00     0.054 A 
ATOM      4  C4  <0> d   1      -0.018   1.469   0.010  0.00  0.00     0.198 A 
ATOM      5  O1  <0> d   1      -1.065   2.094   0.018  0.00  0.00    -0.286 OA
ATOM      6  C5  <0> d   1       1.289   2.150   0.001  0.00  0.00     0.050 A 
ATOM      7  C6  <0> d   1       1.379   3.543   0.007  0.00  0.00     0.021 A 
ATOM      8  C7  <0> d   1       2.606   4.143  -0.002  0.00  0.00     0.041 A 
ATOM      9  C8  <0> d   1       3.766   3.370  -0.017  0.00  0.00     0.118 A 
ATOM     10  C9  <0> d   1       3.693   1.988  -0.024  0.00  0.00     0.039 A 
ATOM     11  C10 <0> d   1       2.453   1.362  -0.014  0.00  0.00     0.100 A 
ATOM     12  O2  <0> d   1       2.364   0.018  -0.020  0.00  0.00    -0.313 OA
ATOM     13  O3  <0> d   1       4.979   3.979  -0.026  0.00  0.00    -0.191 OA
ENDROOT
BRANCH  10  14
ATOM     14  C11 <0> d   1       4.955   1.165  -0.040  0.00  0.00     0.277 C 
BRANCH  14  15
ATOM     15  N1  <0> d   1       5.351   0.903  -1.430  0.00  0.00    -0.067 N 
ATOM     16  H8  <0> d   1       4.548   0.354  -1.943  0.00  0.00     0.277 HD
ATOM     17  H22 <0> d   1       5.530   1.858  -1.946  0.00  0.00     0.277 HD
BRANCH  15  18
ATOM     18  C12 <0> d   1       6.580   0.101  -1.485  0.00  0.00     0.186 C 
ATOM     19  C16 <0> d   1       6.646  -0.674  -2.813  0.00  0.00     0.033 C 
ATOM     20  C15 <0> d   1       7.918  -0.194  -3.541  0.00  0.00     0.002 C 
ATOM     21  C14 <0> d   1       8.827   0.340  -2.406  0.00  0.00     0.002 C 
ATOM     22  C13 <0> d   1       7.816   1.024  -1.452  0.00  0.00     0.033 C 
ENDBRANCH  15  18
ENDBRANCH  14  15
ENDBRANCH  10  14
BRANCH   3  23
ATOM     23  C17 <0> d   1      -1.264  -0.777   0.009  0.00  0.00    -0.019 A 
ATOM     24  C22 <0> d   1      -2.136  -0.701  -1.075  0.00  0.00     0.015 A 
ATOM     25  C21 <0> d   1      -3.312  -1.423  -1.064  0.00  0.00     0.043 A 
ATOM     26  C20 <0> d   1      -3.626  -2.222   0.023  0.00  0.00     0.116 A 
ATOM     27  C19 <0> d   1      -2.763  -2.301   1.103  0.00  0.00     0.043 A 
ATOM     28  F1  <0> d   1      -4.779  -2.927   0.029  0.00  0.00    -0.206 F 
ATOM     29  C18 <0> d   1      -1.582  -1.587   1.098  0.00  0.00     0.015 A 
ENDBRANCH   3  23
TORSDOF 4
