REMARK  5 active torsions:
REMARK  status: ('A' for Active; 'I' for Inactive)
REMARK    1  A    between atoms: C3_3  and  O3_27 
REMARK    2  A    between atoms: C10_12  and  C11_13 
REMARK    3  A    between atoms: C11_13  and  N1_14 
REMARK    4  A    between atoms: N2_17  and  C16_20 
REMARK    5  A    between atoms: C16_20  and  C17_21 
ROOT
ATOM      1  C11 <0> d   1       0.071  -4.351   2.466  0.00  0.00     0.312 C 
ENDROOT
BRANCH   1   2
ATOM      2  C10 <0> d   1       0.051  -2.845   2.441  0.00  0.00    -0.011 A 
ATOM      3  C6  <0> d   1       0.036  -2.113   1.173  0.00  0.00     0.007 A 
ATOM      4  C5  <0> d   1       0.039  -2.792  -0.051  0.00  0.00     0.017 A 
ATOM      5  C7  <0> d   1       0.023  -0.706   1.198  0.00  0.00     0.099 A 
ATOM      6  C4  <0> d   1       0.024  -2.086  -1.219  0.00  0.00     0.038 A 
ATOM      7  C3  <0> d   1       0.006  -0.693  -1.200  0.00  0.00     0.074 A 
ATOM      8  C2  <0> d   1       0.002  -0.004   0.002  0.00  0.00     0.006 A 
ATOM      9  C1  <0> d   1      -0.018   1.503   0.010  0.00  0.00     0.054 C 
ATOM     10  O1  <0> d   1       0.025  -0.054   2.380  0.00  0.00    -0.274 OA
ATOM     11  C8  <0> d   1       0.045  -0.719   3.546  0.00  0.00     0.288 A 
ATOM     12  O2  <0> d   1       0.046  -0.089   4.588  0.00  0.00    -0.260 OA
ATOM     13  C9  <0> d   1       0.065  -2.128   3.595  0.00  0.00     0.092 A 
BRANCH   7  14
ATOM     14  O3  <0> d   1      -0.009  -0.004  -2.370  0.00  0.00    -0.360 OA
ATOM     15  H24 <0> d   1       0.870   0.207  -2.713  0.00  0.00     0.217 HD
ENDBRANCH   7  14
ENDBRANCH   1   2
BRANCH   1  16
ATOM     16  N1  <0> d   1      -1.303  -4.861   2.359  0.00  0.00     0.096 N 
ATOM     17  C15 <0> d   1      -1.310  -6.314   2.141  0.00  0.00     0.300 C 
ATOM     18  C14 <0> d   1      -2.754  -6.795   1.977  0.00  0.00     0.265 C 
ATOM     19  N2  <0> d   1      -3.522  -6.459   3.183  0.00  0.00    -0.064 N 
ATOM     20  C13 <0> d   1      -3.526  -5.003   3.373  0.00  0.00     0.265 C 
ATOM     21  H25 <0> d   1      -3.099  -6.902   3.985  0.00  0.00     0.280 HD
ATOM     22  C12 <0> d   1      -2.089  -4.507   3.549  0.00  0.00     0.300 C 
BRANCH  19  23
ATOM     23  C16 <0> d   1      -4.903  -6.937   3.032  0.00  0.00     0.273 C 
BRANCH  23  24
ATOM     24  C17 <0> d   1      -4.909  -8.442   2.959  0.00  0.00    -0.033 A 
ATOM     25  C22 <0> d   1      -5.022  -9.190   4.117  0.00  0.00     0.009 A 
ATOM     26  C21 <0> d   1      -5.032 -10.570   4.050  0.00  0.00     0.001 A 
ATOM     27  C20 <0> d   1      -4.919 -11.204   2.826  0.00  0.00     0.000 A 
ATOM     28  C19 <0> d   1      -4.801 -10.457   1.669  0.00  0.00     0.001 A 
ATOM     29  C18 <0> d   1      -4.795  -9.076   1.736  0.00  0.00     0.009 A 
ENDBRANCH  23  24
ENDBRANCH  19  23
ENDBRANCH   1  16
TORSDOF 5
