REMARK  7 active torsions:
REMARK  status: ('A' for Active; 'I' for Inactive)
REMARK    1  A    between atoms: C6_6  and  O4_29 
REMARK    2  A    between atoms: C7_7  and  C17_19 
REMARK    3  A    between atoms: C10_12  and  C11_13 
REMARK    4  A    between atoms: C17_19  and  N1_20 
REMARK    5  A    between atoms: N2_23  and  C22_26 
REMARK    6  A    between atoms: C22_26  and  C23_27 
REMARK    7  A    between atoms: C23_27  and  O3_28 
ROOT
ATOM      1  C1  <0> d   1      -0.814   6.299   0.018  0.00  0.00     0.050 C 
ATOM      2  C2  <0> d   1      -1.060   4.812  -0.001  0.00  0.00    -0.032 A 
ATOM      3  C3  <0> d   1       0.028   3.901   0.015  0.00  0.00     0.006 A 
ATOM      4  C4  <0> d   1       1.347   4.378   0.049  0.00  0.00     0.017 A 
ATOM      5  C5  <0> d   1       2.389   3.499   0.064  0.00  0.00     0.038 A 
ATOM      6  C6  <0> d   1       2.153   2.126   0.046  0.00  0.00     0.076 A 
ATOM      7  C7  <0> d   1       0.858   1.636   0.013  0.00  0.00     0.038 A 
ATOM      8  C8  <0> d   1      -0.215   2.516  -0.008  0.00  0.00     0.101 A 
ATOM      9  O1  <0> d   1      -1.478   2.038  -0.036  0.00  0.00    -0.273 OA
ATOM     10  C9  <0> d   1      -2.536   2.866  -0.052  0.00  0.00     0.300 A 
ATOM     11  O2  <0> d   1      -3.664   2.410  -0.082  0.00  0.00    -0.259 OA
ATOM     12  C10 <0> d   1      -2.336   4.317  -0.034  0.00  0.00     0.057 A 
ENDROOT
BRANCH   7  13
ATOM     13  C17 <0> d   1       0.615   0.149  -0.006  0.00  0.00     0.317 C 
BRANCH  13  14
ATOM     14  N1  <0> d   1       0.505  -0.348   1.372  0.00  0.00     0.096 N 
ATOM     15  C21 <0> d   1       0.035  -1.740   1.395  0.00  0.00     0.303 C 
ATOM     16  C20 <0> d   1      -0.141  -2.192   2.846  0.00  0.00     0.302 C 
ATOM     17  N2  <0> d   1       1.138  -2.060   3.557  0.00  0.00     0.093 N 
ATOM     18  C19 <0> d   1       1.609  -0.668   3.534  0.00  0.00     0.302 C 
ATOM     19  C18 <0> d   1       1.785  -0.215   2.083  0.00  0.00     0.303 C 
BRANCH  17  20
ATOM     20  C22 <0> d   1       1.029  -2.556   4.935  0.00  0.00     0.298 C 
BRANCH  20  21
ATOM     21  C23 <0> d   1       1.020  -4.086   4.927  0.00  0.00     0.194 C 
BRANCH  21  22
ATOM     22  O3  <0> d   1       2.275  -4.568   4.443  0.00  0.00    -0.399 OA
ATOM     23  H25 <0> d   1       2.456  -5.650   4.365  0.00  0.00     0.209 HD
ENDBRANCH  21  22
ENDBRANCH  20  21
ENDBRANCH  17  20
ENDBRANCH  13  14
ENDBRANCH   7  13
BRANCH   6  24
ATOM     24  O4  <0> d   1       3.200   1.262   0.061  0.00  0.00    -0.360 OA
ATOM     25  H26 <0> d   1       3.018   0.177   0.047  0.00  0.00     0.217 HD
ENDBRANCH   6  24
BRANCH  12  26
ATOM     26  C11 <0> d   1      -3.498   5.237  -0.051  0.00  0.00    -0.019 A 
ATOM     27  C16 <0> d   1      -4.338   5.282  -1.163  0.00  0.00     0.012 A 
ATOM     28  C15 <0> d   1      -5.419   6.140  -1.173  0.00  0.00     0.001 A 
ATOM     29  C14 <0> d   1      -5.669   6.954  -0.083  0.00  0.00     0.000 A 
ATOM     30  C13 <0> d   1      -4.839   6.914   1.023  0.00  0.00     0.001 A 
ATOM     31  C12 <0> d   1      -3.758   6.056   1.047  0.00  0.00     0.012 A 
ENDBRANCH  12  26
TORSDOF 7
