REMARK  5 active torsions:
REMARK  status: ('A' for Active; 'I' for Inactive)
REMARK    1  A    between atoms: C2_2  and  N1_3 
REMARK    2  A    between atoms: C4_5  and  C11_12 
REMARK    3  A    between atoms: C17_19  and  O3_30 
REMARK    4  A    between atoms: C18_20  and  C20_23 
REMARK    5  A    between atoms: C20_23  and  N2_24 
ROOT
ATOM      1  C11 <0> d   1      -2.533   1.389   0.021  0.00  0.00     0.055 C 
ATOM      2  C12 <0> d   1      -2.801   0.053   0.016  0.00  0.00     0.128 A 
ATOM      3  C13 <0> d   1      -4.095  -0.534   0.025  0.00  0.00     0.218 A 
ATOM      4  O1  <0> d   1      -5.170   0.042   0.039  0.00  0.00    -0.284 OA
ATOM      5  C14 <0> d   1      -3.859  -1.988   0.011  0.00  0.00     0.051 A 
ATOM      6  C15 <0> d   1      -4.703  -3.099   0.010  0.00  0.00     0.021 A 
ATOM      7  C16 <0> d   1      -4.171  -4.357   0.003  0.00  0.00     0.038 A 
ATOM      8  C17 <0> d   1      -2.790  -4.535  -0.004  0.00  0.00     0.076 A 
ATOM      9  C18 <0> d   1      -1.940  -3.442  -0.003  0.00  0.00     0.036 A 
ATOM     10  C19 <0> d   1      -2.464  -2.156   0.005  0.00  0.00     0.101 A 
ATOM     11  O2  <0> d   1      -1.879  -0.939   0.008  0.00  0.00    -0.305 OA
ENDROOT
BRANCH   1  12
ATOM     12  C4  <0> d   1      -1.149   1.856   0.017  0.00  0.00    -0.005 A 
ATOM     13  C3  <0> d   1      -0.013   1.076   0.008  0.00  0.00     0.103 A 
ATOM     14  N1  <0> d   1       1.084   1.873   0.002  0.00  0.00    -0.356 N 
ATOM     15  C6  <0> d   1       0.715   3.204   0.012  0.00  0.00     0.045 A 
ATOM     16  C5  <0> d   1      -0.688   3.258   0.025  0.00  0.00     0.002 A 
ATOM     17  C7  <0> d   1       1.443   4.389   0.010  0.00  0.00     0.030 A 
ATOM     18  C10 <0> d   1      -1.339   4.488   0.036  0.00  0.00     0.014 A 
ATOM     19  C9  <0> d   1      -0.601   5.652   0.034  0.00  0.00     0.001 A 
ATOM     20  C8  <0> d   1       0.785   5.600   0.022  0.00  0.00     0.002 A 
BRANCH  14  21
ATOM     21  C2  <0> d   1       2.467   1.391  -0.013  0.00  0.00     0.124 C 
ATOM     22  C1  <0> d   1       3.003   1.334   1.419  0.00  0.00     0.027 C 
ENDBRANCH  14  21
ENDBRANCH   1  12
BRANCH   9  23
ATOM     23  C20 <0> d   1      -0.447  -3.647  -0.010  0.00  0.00     0.279 C 
BRANCH  23  24
ATOM     24  N2  <0> d   1       0.044  -3.720   1.372  0.00  0.00    -0.067 N 
ATOM     25  C25 <0> d   1       1.447  -4.154   1.411  0.00  0.00     0.235 C 
ATOM     26  C24 <0> d   1       1.880  -4.358   2.864  0.00  0.00     0.028 C 
ATOM     27  C23 <0> d   1       1.711  -3.044   3.631  0.00  0.00     0.003 C 
ATOM     28  C22 <0> d   1       0.252  -2.589   3.535  0.00  0.00     0.028 C 
ATOM     29  C21 <0> d   1      -0.133  -2.436   2.062  0.00  0.00     0.235 C 
ATOM     30  H26 <0> d   1      -0.554  -4.473   1.906  0.00  0.00     0.280 HD
ENDBRANCH  23  24
ENDBRANCH   9  23
BRANCH   8  31
ATOM     31  O3  <0> d   1      -2.273  -5.790  -0.012  0.00  0.00    -0.360 OA
ATOM     32  H27 <0> d   1      -1.183  -5.936  -0.017  0.00  0.00     0.217 HD
ENDBRANCH   8  31
TORSDOF 5
