REMARK  5 active torsions:
REMARK  status: ('A' for Active; 'I' for Inactive)
REMARK    1  A    between atoms: C2_2  and  N1_3 
REMARK    2  A    between atoms: N2_6  and  C7_9 
REMARK    3  A    between atoms: C7_9  and  C8_10 
REMARK    4  A    between atoms: C14_17  and  C23_27 
REMARK    5  A    between atoms: C15_18  and  C17_21 
ROOT
ATOM      1  C8  <0> d   1      -0.074   1.899   1.138  0.00  0.00     0.039 A 
ATOM      2  C9  <0> d   1       1.061   2.693   1.133  0.00  0.00     0.118 A 
ATOM      3  C10 <0> d   1       1.028   3.975   0.589  0.00  0.00     0.041 A 
ATOM      4  C11 <0> d   1      -0.128   4.466   0.052  0.00  0.00     0.021 A 
ATOM      5  C12 <0> d   1      -1.280   3.679   0.049  0.00  0.00     0.050 A 
ATOM      6  C13 <0> d   1      -1.256   2.381   0.591  0.00  0.00     0.101 A 
ATOM      7  O1  <0> d   1      -2.371   1.624   0.593  0.00  0.00    -0.303 OA
ATOM      8  C14 <0> d   1      -3.536   2.035   0.087  0.00  0.00     0.174 A 
ATOM      9  C15 <0> d   1      -3.699   3.262  -0.472  0.00  0.00     0.064 A 
ATOM     10  C16 <0> d   1      -2.545   4.176  -0.521  0.00  0.00     0.198 A 
ATOM     11  O2  <0> d   1      -2.632   5.289  -1.010  0.00  0.00    -0.286 OA
ATOM     12  O3  <0> d   1       2.216   2.217   1.664  0.00  0.00    -0.191 OA
ENDROOT
BRANCH   1  13
ATOM     13  C7  <0> d   1      -0.025   0.514   1.729  0.00  0.00     0.279 C 
BRANCH  13  14
ATOM     14  N2  <0> d   1      -0.364   0.579   3.157  0.00  0.00    -0.064 N 
ATOM     15  C4  <0> d   1      -0.558  -0.767   3.714  0.00  0.00     0.265 C 
ATOM     16  C3  <0> d   1      -0.987  -0.653   5.179  0.00  0.00     0.300 C 
ATOM     17  N1  <0> d   1       0.040   0.081   5.931  0.00  0.00     0.091 N 
ATOM     18  C6  <0> d   1       0.234   1.427   5.374  0.00  0.00     0.300 C 
ATOM     19  C5  <0> d   1       0.663   1.313   3.909  0.00  0.00     0.265 C 
ATOM     20  H23 <0> d   1      -1.313   1.127   3.253  0.00  0.00     0.280 HD
BRANCH  17  21
ATOM     21  C2  <0> d   1      -0.299   0.146   7.359  0.00  0.00     0.268 C 
ATOM     22  C1  <0> d   1       0.896   0.691   8.143  0.00  0.00     0.037 C 
ENDBRANCH  17  21
ENDBRANCH  13  14
ENDBRANCH   1  13
BRANCH   8  23
ATOM     23  C23 <0> d   1      -4.717   1.100   0.138  0.00  0.00     0.440 C 
ATOM     24  F1  <0> d   1      -5.045   0.692  -1.159  0.00  0.00    -0.164 F 
ATOM     25  F2  <0> d   1      -4.393  -0.020   0.912  0.00  0.00    -0.164 F 
ATOM     26  F3  <0> d   1      -5.810   1.760   0.710  0.00  0.00    -0.164 F 
ENDBRANCH   8  23
BRANCH   9  27
ATOM     27  C17 <0> d   1      -5.014   3.674  -1.021  0.00  0.00    -0.019 A 
ATOM     28  C22 <0> d   1      -5.768   4.651  -0.373  0.00  0.00     0.012 A 
ATOM     29  C21 <0> d   1      -6.990   5.030  -0.889  0.00  0.00     0.001 A 
ATOM     30  C20 <0> d   1      -7.467   4.443  -2.047  0.00  0.00     0.000 A 
ATOM     31  C19 <0> d   1      -6.723   3.473  -2.695  0.00  0.00     0.001 A 
ATOM     32  C18 <0> d   1      -5.497   3.090  -2.191  0.00  0.00     0.012 A 
ENDBRANCH   9  27
TORSDOF 5
