REMARK  6 active torsions:
REMARK  status: ('A' for Active; 'I' for Inactive)
REMARK    1  A    between atoms: C2_2  and  N1_3 
REMARK    2  A    between atoms: N2_6  and  C7_9 
REMARK    3  A    between atoms: C7_9  and  C8_10 
REMARK    4  A    between atoms: C9_11  and  O3_29 
REMARK    5  A    between atoms: C15_18  and  C16_19 
REMARK    6  A    between atoms: C17_20  and  C18_21 
ROOT
ATOM      1  C8  <0> d   1       1.762  -4.052   4.729  0.00  0.00     0.038 A 
ATOM      2  C9  <0> d   1       0.735  -4.762   5.330  0.00  0.00     0.076 A 
ATOM      3  C10 <0> d   1       0.741  -6.154   5.329  0.00  0.00     0.038 A 
ATOM      4  C11 <0> d   1       1.765  -6.836   4.733  0.00  0.00     0.021 A 
ATOM      5  C12 <0> d   1       2.806  -6.134   4.124  0.00  0.00     0.051 A 
ATOM      6  C13 <0> d   1       2.807  -4.729   4.114  0.00  0.00     0.101 A 
ATOM      7  O1  <0> d   1       3.904  -4.281   3.465  0.00  0.00    -0.305 OA
ATOM      8  C14 <0> d   1       4.673  -5.299   3.014  0.00  0.00     0.127 A 
ATOM      9  C15 <0> d   1       5.843  -5.180   2.322  0.00  0.00     0.041 C 
ATOM     10  C24 <0> d   1       4.026  -6.555   3.413  0.00  0.00     0.218 A 
ATOM     11  O2  <0> d   1       4.407  -7.692   3.194  0.00  0.00    -0.284 OA
ENDROOT
BRANCH   1  12
ATOM     12  C7  <0> d   1       1.741  -2.545   4.737  0.00  0.00     0.317 C 
BRANCH  12  13
ATOM     13  N2  <0> d   1       1.031  -2.059   3.547  0.00  0.00     0.096 N 
ATOM     14  C4  <0> d   1       0.782  -0.613   3.636  0.00  0.00     0.303 C 
ATOM     15  C3  <0> d   1      -0.027  -0.161   2.418  0.00  0.00     0.302 C 
ATOM     16  N1  <0> d   1       0.713  -0.491   1.192  0.00  0.00     0.091 N 
ATOM     17  C6  <0> d   1       0.961  -1.936   1.103  0.00  0.00     0.302 C 
ATOM     18  C5  <0> d   1       1.770  -2.389   2.321  0.00  0.00     0.303 C 
BRANCH  16  19
ATOM     19  C2  <0> d   1       0.002  -0.004   0.002  0.00  0.00     0.268 C 
ATOM     20  C1  <0> d   1      -0.019   1.526   0.010  0.00  0.00     0.037 C 
ENDBRANCH  16  19
ENDBRANCH  12  13
ENDBRANCH   1  12
BRANCH   2  21
ATOM     21  O3  <0> d   1      -0.286  -4.095   5.925  0.00  0.00    -0.360 OA
ATOM     22  H26 <0> d   1      -1.028  -3.903   5.335  0.00  0.00     0.217 HD
ENDBRANCH   2  21
BRANCH   9  23
ATOM     23  C16 <0> d   1       6.354  -3.903   2.018  0.00  0.00     0.004 C 
ATOM     24  C17 <0> d   1       7.516  -3.784   1.332  0.00  0.00     0.011 C 
BRANCH  24  25
ATOM     25  C18 <0> d   1       8.049  -2.452   1.014  0.00  0.00    -0.036 A 
ATOM     26  C23 <0> d   1       9.249  -2.325   0.305  0.00  0.00     0.011 A 
ATOM     27  C22 <0> d   1       9.739  -1.071   0.005  0.00  0.00     0.001 A 
ATOM     28  C21 <0> d   1       9.053   0.060   0.414  0.00  0.00     0.000 A 
ATOM     29  C20 <0> d   1       7.868  -0.057   1.121  0.00  0.00     0.001 A 
ATOM     30  C19 <0> d   1       7.362  -1.303   1.423  0.00  0.00     0.011 A 
ENDBRANCH  24  25
ENDBRANCH   9  23
TORSDOF 6
