REMARK  3 active torsions:
REMARK  status: ('A' for Active; 'I' for Inactive)
REMARK    1  A    between atoms: C4_4  and  C7_7 
REMARK    2  A    between atoms: C10_10  and  C13_13 
REMARK    3  A    between atoms: N1_25  and  C24_28 
ROOT
ATOM      1  C13 <0> d   1       7.396  -2.745  -0.086  0.00  0.00     0.053 C 
ATOM      2  C14 <0> d   1       7.421  -4.099   0.003  0.00  0.00     0.127 A 
ATOM      3  C15 <0> d   1       8.622  -4.942   0.108  0.00  0.00     0.218 A 
ATOM      4  O1  <0> d   1       9.786  -4.582   0.133  0.00  0.00    -0.284 OA
ATOM      5  C16 <0> d   1       8.102  -6.319   0.177  0.00  0.00     0.051 A 
ATOM      6  C17 <0> d   1       8.715  -7.568   0.284  0.00  0.00     0.021 A 
ATOM      7  C18 <0> d   1       7.952  -8.699   0.327  0.00  0.00     0.038 A 
ATOM      8  C19 <0> d   1       6.562  -8.613   0.264  0.00  0.00     0.081 A 
ATOM      9  C20 <0> d   1       5.940  -7.380   0.159  0.00  0.00     0.036 A 
ATOM     10  C21 <0> d   1       6.703  -6.218   0.113  0.00  0.00     0.101 A 
ATOM     11  O2  <0> d   1       6.344  -4.919   0.018  0.00  0.00    -0.305 OA
ATOM     12  C22 <0> d   1       4.438  -7.277   0.094  0.00  0.00     0.282 C 
ATOM     13  N1  <0> d   1       3.867  -8.578  -0.277  0.00  0.00    -0.042 N 
ATOM     14  C23 <0> d   1       4.433  -9.615   0.601  0.00  0.00     0.410 C 
ATOM     15  O3  <0> d   1       5.825  -9.754   0.307  0.00  0.00    -0.323 OA
ATOM     16  H22 <0> d   1       4.096  -8.786  -1.237  0.00  0.00     0.283 HD
ENDROOT
BRANCH   1  17
ATOM     17  C10 <0> d   1       6.114  -2.031  -0.064  0.00  0.00    -0.033 A 
ATOM     18  C9  <0> d   1       4.910  -2.749  -0.081  0.00  0.00     0.012 A 
ATOM     19  C8  <0> d   1       3.719  -2.082  -0.059  0.00  0.00     0.013 A 
ATOM     20  C7  <0> d   1       3.699  -0.687  -0.021  0.00  0.00    -0.026 A 
ATOM     21  C12 <0> d   1       4.896   0.031  -0.010  0.00  0.00     0.013 A 
ATOM     22  C11 <0> d   1       6.090  -0.631  -0.026  0.00  0.00     0.012 A 
BRANCH  20  23
ATOM     23  C4  <0> d   1       2.404   0.034   0.002  0.00  0.00    -0.026 A 
ATOM     24  C3  <0> d   1       1.205  -0.679  -0.008  0.00  0.00     0.012 A 
ATOM     25  C2  <0> d   1       0.003  -0.002   0.014  0.00  0.00     0.001 A 
ATOM     26  C1  <0> d   1      -0.015   1.381   0.047  0.00  0.00     0.000 A 
ATOM     27  C6  <0> d   1       1.170   2.094   0.058  0.00  0.00     0.001 A 
ATOM     28  C5  <0> d   1       2.379   1.428   0.035  0.00  0.00     0.012 A 
ENDBRANCH  20  23
ENDBRANCH   1  17
BRANCH  13  29
ATOM     29  C24 <0> d   1       2.408  -8.540  -0.114  0.00  0.00     0.191 A 
ATOM     30  C26 <0> d   1       1.632  -7.510  -0.939  0.00  0.00     0.035 A 
ATOM     31  C25 <0> d   1       1.553  -8.995  -1.299  0.00  0.00     0.035 A 
ENDBRANCH  13  29
TORSDOF 3
