REMARK  3 active torsions:
REMARK  status: ('A' for Active; 'I' for Inactive)
REMARK    1  A    between atoms: C9_10  and  C10_11 
REMARK    2  A    between atoms: C14_15  and  O2_17 
REMARK    3  A    between atoms: N1_22  and  C20_25 
ROOT
ATOM      1  C1  <0> d   1      -8.977  -1.031   1.617  0.00  0.00     0.054 C 
ATOM      2  C2  <0> d   1      -9.169  -0.245   2.889  0.00  0.00     0.007 A 
ATOM      3  C3  <0> d   1     -10.418  -0.200   3.492  0.00  0.00     0.087 A 
ATOM      4  C4  <0> d   1     -10.607   0.522   4.666  0.00  0.00     0.005 A 
ATOM      5  C5  <0> d   1      -9.559   1.196   5.233  0.00  0.00     0.030 A 
ATOM      6  C6  <0> d   1      -8.300   1.158   4.637  0.00  0.00     0.052 A 
ATOM      7  C7  <0> d   1      -8.096   0.431   3.452  0.00  0.00     0.099 A 
ATOM      8  O1  <0> d   1      -6.806   0.540   3.067  0.00  0.00    -0.305 OA
ATOM      9  C8  <0> d   1      -6.088   1.308   3.920  0.00  0.00     0.127 A 
ATOM     10  C9  <0> d   1      -4.771   1.609   3.812  0.00  0.00     0.053 C 
ATOM     11  C17 <0> d   1      -6.998   1.752   4.989  0.00  0.00     0.218 A 
ATOM     12  O3  <0> d   1      -6.734   2.455   5.949  0.00  0.00    -0.284 OA
ATOM     13  C18 <0> d   1     -11.960   0.574   5.330  0.00  0.00     0.317 C 
ATOM     14  N1  <0> d   1     -12.994   0.156   4.374  0.00  0.00     0.121 N 
ATOM     15  C19 <0> d   1     -12.605  -1.108   3.726  0.00  0.00     0.448 C 
ATOM     16  O4  <0> d   1     -11.451  -0.870   2.917  0.00  0.00    -0.320 OA
ENDROOT
BRANCH  10  17
ATOM     17  C10 <0> d   1      -4.013   1.181   2.627  0.00  0.00    -0.031 A 
ATOM     18  C15 <0> d   1      -4.613   0.356   1.671  0.00  0.00     0.048 A 
ATOM     19  C14 <0> d   1      -3.892  -0.042   0.558  0.00  0.00     0.069 A 
ATOM     20  C13 <0> d   1      -2.576   0.372   0.397  0.00  0.00     0.037 A 
ATOM     21  C12 <0> d   1      -1.982   1.193   1.339  0.00  0.00     0.004 A 
ATOM     22  C11 <0> d   1      -2.688   1.598   2.452  0.00  0.00     0.011 A 
BRANCH  19  23
ATOM     23  O2  <0> d   1      -4.471  -0.844  -0.374  0.00  0.00    -0.356 OA
ATOM     24  C16 <0> d   1      -3.669  -1.217  -1.496  0.00  0.00     0.210 C 
ENDBRANCH  19  23
ENDBRANCH  10  17
BRANCH  14  25
ATOM     25  C20 <0> d   1     -14.301   0.029   5.033  0.00  0.00     0.240 C 
ATOM     26  C23 <0> d   1     -14.265  -1.151   6.047  0.00  0.00     0.176 C 
ATOM     27  S1  <0> d   1     -15.701  -0.718   7.118  0.00  0.00     0.146 S 
ATOM     28  C22 <0> d   1     -15.819   1.082   6.756  0.00  0.00     0.142 C 
ATOM     29  O5  <0> d   1     -16.862  -1.367   6.619  0.00  0.00    -0.228 OA
ATOM     30  O6  <0> d   1     -15.332  -0.894   8.479  0.00  0.00    -0.228 OA
ATOM     31  C21 <0> d   1     -14.618   1.318   5.810  0.00  0.00     0.052 C 
ENDBRANCH  14  25
TORSDOF 3
