REMARK  6 active torsions:
REMARK  status: ('A' for Active; 'I' for Inactive)
REMARK    1  A    between atoms: C2_2  and  N1_3 
REMARK    2  A    between atoms: N2_6  and  C7_9 
REMARK    3  A    between atoms: C7_9  and  C8_10 
REMARK    4  A    between atoms: C9_11  and  O4_33 
REMARK    5  A    between atoms: C15_18  and  C16_19 
REMARK    6  A    between atoms: C21_25  and  O2_28 
ROOT
ATOM      1  C8  <0> d   1       3.437   3.501   1.490  0.00  0.00     0.038 A 
ATOM      2  C9  <0> d   1       3.390   4.385   0.424  0.00  0.00     0.076 A 
ATOM      3  C10 <0> d   1       3.326   5.758   0.646  0.00  0.00     0.038 A 
ATOM      4  C11 <0> d   1       3.319   6.249   1.921  0.00  0.00     0.021 A 
ATOM      5  C12 <0> d   1       3.370   5.372   3.003  0.00  0.00     0.051 A 
ATOM      6  C13 <0> d   1       3.430   3.984   2.791  0.00  0.00     0.101 A 
ATOM      7  O1  <0> d   1       3.471   3.362   3.989  0.00  0.00    -0.305 OA
ATOM      8  C14 <0> d   1       3.443   4.252   5.009  0.00  0.00     0.128 A 
ATOM      9  C15 <0> d   1       3.473   3.943   6.336  0.00  0.00     0.055 C 
ATOM     10  C26 <0> d   1       3.379   5.562   4.464  0.00  0.00     0.218 A 
ATOM     11  O3  <0> d   1       3.338   6.617   5.074  0.00  0.00    -0.284 OA
ENDROOT
BRANCH   9  12
ATOM     12  C16 <0> d   1       3.540   2.546   6.759  0.00  0.00    -0.005 A 
ATOM     13  C19 <0> d   1       3.579   2.042   8.146  0.00  0.00     0.005 A 
ATOM     14  C18 <0> d   1       3.640   0.643   8.047  0.00  0.00     0.045 A 
ATOM     15  C20 <0> d   1       3.567   2.655   9.395  0.00  0.00     0.051 A 
ATOM     16  N3  <0> d   1       3.638   0.316   6.705  0.00  0.00    -0.360 N 
ATOM     17  C23 <0> d   1       3.688  -0.123   9.208  0.00  0.00     0.033 A 
ATOM     18  C17 <0> d   1       3.574   1.435   5.943  0.00  0.00     0.103 A 
ATOM     19  C25 <0> d   1       3.691  -1.050   6.178  0.00  0.00     0.156 C 
ATOM     20  C22 <0> d   1       3.676   0.493  10.441  0.00  0.00     0.039 A 
ATOM     21  C21 <0> d   1       3.616   1.879  10.539  0.00  0.00     0.069 A 
BRANCH  21  22
ATOM     22  O2  <0> d   1       3.604   2.473  11.762  0.00  0.00    -0.356 OA
ATOM     23  C24 <0> d   1       3.656   1.612  12.901  0.00  0.00     0.210 C 
ENDBRANCH  21  22
ENDBRANCH   9  12
BRANCH   1  24
ATOM     24  C7  <0> d   1       3.501   2.017   1.237  0.00  0.00     0.317 C 
BRANCH  24  25
ATOM     25  N2  <0> d   1       2.138   1.472   1.171  0.00  0.00     0.096 N 
ATOM     26  C4  <0> d   1       1.419   1.992  -0.001  0.00  0.00     0.303 C 
ATOM     27  C3  <0> d   1      -0.018   1.465   0.010  0.00  0.00     0.302 C 
ATOM     28  N1  <0> d   1       0.002  -0.004   0.002  0.00  0.00     0.091 N 
ATOM     29  C6  <0> d   1       0.721  -0.525   1.173  0.00  0.00     0.302 C 
ATOM     30  C5  <0> d   1       2.158   0.003   1.162  0.00  0.00     0.303 C 
BRANCH  28  31
ATOM     31  C2  <0> d   1      -1.361  -0.549  -0.064  0.00  0.00     0.268 C 
ATOM     32  C1  <0> d   1      -1.296  -2.055  -0.321  0.00  0.00     0.037 C 
ENDBRANCH  28  31
ENDBRANCH  24  25
ENDBRANCH   1  24
BRANCH   2  33
ATOM     33  O4  <0> d   1       3.402   3.908  -0.847  0.00  0.00    -0.360 OA
ATOM     34  H29 <0> d   1       3.365   4.606  -1.697  0.00  0.00     0.217 HD
ENDBRANCH   2  33
TORSDOF 6
