REMARK  4 active torsions:
REMARK  status: ('A' for Active; 'I' for Inactive)
REMARK    1  A    between atoms: N1_6  and  C7_8 
REMARK    2  A    between atoms: C7_8  and  C8_9 
REMARK    3  A    between atoms: C9_10  and  O3_30 
REMARK    4  A    between atoms: C15_17  and  C16_18 
ROOT
ATOM      1  C8  <0> d   1      -0.465   3.268  -3.611  0.00  0.00     0.036 A 
ATOM      2  C9  <0> d   1       0.530   4.160  -3.979  0.00  0.00     0.076 A 
ATOM      3  C10 <0> d   1       1.380   3.872  -5.043  0.00  0.00     0.038 A 
ATOM      4  C11 <0> d   1       1.235   2.708  -5.744  0.00  0.00     0.021 A 
ATOM      5  C12 <0> d   1       0.235   1.804  -5.389  0.00  0.00     0.051 A 
ATOM      6  C13 <0> d   1      -0.625   2.082  -4.314  0.00  0.00     0.101 A 
ATOM      7  O1  <0> d   1      -1.495   1.058  -4.177  0.00  0.00    -0.305 OA
ATOM      8  C14 <0> d   1      -1.275   0.095  -5.102  0.00  0.00     0.128 A 
ATOM      9  C15 <0> d   1      -1.981  -1.064  -5.229  0.00  0.00     0.055 C 
ATOM     10  C25 <0> d   1      -0.183   0.494  -5.918  0.00  0.00     0.218 A 
ATOM     11  O2  <0> d   1       0.302  -0.115  -6.857  0.00  0.00    -0.284 OA
ENDROOT
BRANCH   9  12
ATOM     12  C16 <0> d   1      -3.086  -1.350  -4.316  0.00  0.00    -0.005 A 
ATOM     13  C19 <0> d   1      -3.950  -2.546  -4.319  0.00  0.00     0.002 A 
ATOM     14  C18 <0> d   1      -4.856  -2.371  -3.261  0.00  0.00     0.045 A 
ATOM     15  C20 <0> d   1      -4.000  -3.698  -5.099  0.00  0.00     0.014 A 
ATOM     16  N2  <0> d   1      -4.575  -1.159  -2.664  0.00  0.00    -0.360 N 
ATOM     17  C23 <0> d   1      -5.809  -3.353  -3.010  0.00  0.00     0.030 A 
ATOM     18  C17 <0> d   1      -3.532  -0.554  -3.283  0.00  0.00     0.103 A 
ATOM     19  C24 <0> d   1      -5.303  -0.604  -1.520  0.00  0.00     0.156 C 
ATOM     20  C22 <0> d   1      -5.851  -4.487  -3.793  0.00  0.00     0.002 A 
ATOM     21  C21 <0> d   1      -4.951  -4.660  -4.834  0.00  0.00     0.001 A 
ENDBRANCH   9  12
BRANCH   1  22
ATOM     22  C7  <0> d   1      -1.375   3.588  -2.454  0.00  0.00     0.279 C 
BRANCH  22  23
ATOM     23  N1  <0> d   1      -0.793   3.061  -1.212  0.00  0.00    -0.067 N 
ATOM     24  C5  <0> d   1      -0.754   1.594  -1.231  0.00  0.00     0.235 C 
ATOM     25  C4  <0> d   1      -0.013   1.086   0.008  0.00  0.00     0.028 C 
ATOM     26  C3  <0> d   1      -0.731   1.580   1.267  0.00  0.00     0.007 C 
ATOM     27  C2  <0> d   1      -0.801   3.110   1.237  0.00  0.00     0.007 C 
ATOM     28  C1  <0> d   1      -1.571   3.610   2.461  0.00  0.00     0.011 C 
ATOM     29  C6  <0> d   1      -1.520   3.559  -0.037  0.00  0.00     0.239 C 
ATOM     30  H26 <0> d   1       0.244   3.423  -1.143  0.00  0.00     0.280 HD
ENDBRANCH  22  23
ENDBRANCH   1  22
BRANCH   2  31
ATOM     31  O3  <0> d   1       0.679   5.322  -3.293  0.00  0.00    -0.360 OA
ATOM     32  H27 <0> d   1       1.467   6.033  -3.581  0.00  0.00     0.217 HD
ENDBRANCH   2  31
TORSDOF 4
