REMARK  8 active torsions:
REMARK  status: ('A' for Active; 'I' for Inactive)
REMARK    1  A    between atoms: C2_2  and  C3_3 
REMARK    2  A    between atoms: C7_8  and  C20_26 
REMARK    3  A    between atoms: C10_12  and  C12_15 
REMARK    4  A    between atoms: C11_13  and  O3_14 
REMARK    5  A    between atoms: C12_15  and  N1_16 
REMARK    6  A    between atoms: N2_19  and  C17_22 
REMARK    7  A    between atoms: C17_22  and  C18_23 
REMARK    8  A    between atoms: C18_23  and  O4_24 
ROOT
ATOM      1  C3  <0> d   1       0.530  -0.722   1.349  0.00  0.00    -0.024 A 
ATOM      2  C4  <0> d   1       1.868  -0.954   1.195  0.00  0.00     0.028 A 
ATOM      3  C5  <0> d   1       2.635  -1.329   2.297  0.00  0.00     0.050 A 
ATOM      4  C6  <0> d   1       4.080  -1.603   2.172  0.00  0.00     0.201 C 
ATOM      5  O1  <0> d   1       4.711  -1.302   1.175  0.00  0.00    -0.286 OA
ATOM      6  C7  <0> d   1       4.714  -2.264   3.331  0.00  0.00     0.090 C 
ATOM      7  C8  <0> d   1       4.011  -2.329   4.497  0.00  0.00     0.068 C 
ATOM      8  O2  <0> d   1       2.791  -1.810   4.633  0.00  0.00    -0.313 OA
ATOM      9  C9  <0> d   1       2.045  -1.463   3.567  0.00  0.00     0.100 A 
ATOM     10  C10 <0> d   1       0.683  -1.227   3.704  0.00  0.00     0.038 A 
ATOM     11  C11 <0> d   1      -0.066  -0.853   2.601  0.00  0.00     0.082 A 
ATOM     12  C19 <0> d   1       4.640  -3.017   5.682  0.00  0.00     0.078 C 
ENDROOT
BRANCH  10  13
ATOM     13  C12 <0> d   1       0.024  -1.371   5.051  0.00  0.00     0.317 C 
BRANCH  13  14
ATOM     14  N1  <0> d   1       0.068  -0.084   5.758  0.00  0.00     0.096 N 
ATOM     15  C16 <0> d   1      -0.767  -0.118   6.967  0.00  0.00     0.303 C 
ATOM     16  C15 <0> d   1      -0.758   1.261   7.630  0.00  0.00     0.302 C 
ATOM     17  N2  <0> d   1       0.625   1.634   7.959  0.00  0.00     0.093 N 
ATOM     18  C14 <0> d   1       1.460   1.668   6.750  0.00  0.00     0.302 C 
ATOM     19  C13 <0> d   1       1.451   0.289   6.088  0.00  0.00     0.303 C 
BRANCH  17  20
ATOM     20  C17 <0> d   1       0.669   2.921   8.666  0.00  0.00     0.298 C 
BRANCH  20  21
ATOM     21  C18 <0> d   1      -0.001   2.775  10.034  0.00  0.00     0.194 C 
BRANCH  21  22
ATOM     22  O4  <0> d   1       0.759   1.873  10.842  0.00  0.00    -0.399 OA
ATOM     23  H22 <0> d   1       0.392   1.733  11.725  0.00  0.00     0.209 HD
ENDBRANCH  21  22
ENDBRANCH  20  21
ENDBRANCH  17  20
ENDBRANCH  13  14
ENDBRANCH  10  13
BRANCH  11  24
ATOM     24  O3  <0> d   1      -1.395  -0.618   2.740  0.00  0.00    -0.359 OA
ATOM     25  H7  <0> d   1      -1.949  -1.400   2.611  0.00  0.00     0.217 HD
ENDBRANCH  11  24
BRANCH   1  26
ATOM     26  C2  <0> d   1      -0.302  -0.316   0.160  0.00  0.00     0.037 C 
ATOM     27  C1  <0> d   1      -0.408   1.209   0.108  0.00  0.00     0.010 C 
ENDBRANCH   1  26
BRANCH   6  28
ATOM     28  C20 <0> d   1       6.070  -2.839   3.228  0.00  0.00     0.147 A 
ATOM     29  N4  <0> d   1       6.442  -3.829   2.359  0.00  0.00    -0.333 N 
ATOM     30  C26 <0> d   1       7.784  -4.080   2.575  0.00  0.00     0.064 A 
ATOM     31  C27 <0> d   1       5.580  -4.495   1.379  0.00  0.00     0.158 C 
ATOM     32  C21 <0> d   1       8.185  -3.211   3.606  0.00  0.00     0.086 A 
ATOM     33  C25 <0> d   1       8.704  -4.953   2.012  0.00  0.00     0.032 A 
ATOM     34  N3  <0> d   1       7.098  -2.482   3.961  0.00  0.00    -0.228 NA
ATOM     35  C22 <0> d   1       9.510  -3.239   4.052  0.00  0.00     0.034 A 
ATOM     36  C23 <0> d   1      10.401  -4.105   3.485  0.00  0.00     0.002 A 
ATOM     37  C24 <0> d   1      10.006  -4.963   2.468  0.00  0.00     0.002 A 
ENDBRANCH   6  28
TORSDOF 8
