REMARK  6 active torsions:
REMARK  status: ('A' for Active; 'I' for Inactive)
REMARK    1  A    between atoms: C6_6  and  C7_7 
REMARK    2  A    between atoms: C14_15  and  C16_18 
REMARK    3  A    between atoms: C16_18  and  N1_19 
REMARK    4  A    between atoms: N2_22  and  C21_25 
REMARK    5  A    between atoms: C21_25  and  C22_26 
REMARK    6  A    between atoms: C22_26  and  O3_27 
ROOT
ATOM      1  C7  <0> d   1      -0.593   1.482  -0.273  0.00  0.00     0.053 C 
ATOM      2  C8  <0> d   1      -1.751   2.191  -0.245  0.00  0.00     0.127 A 
ATOM      3  C9  <0> d   1      -1.884   3.645  -0.413  0.00  0.00     0.218 A 
ATOM      4  O1  <0> d   1      -0.996   4.458  -0.604  0.00  0.00    -0.284 OA
ATOM      5  C10 <0> d   1      -3.331   3.900  -0.300  0.00  0.00     0.051 A 
ATOM      6  C11 <0> d   1      -4.104   5.060  -0.367  0.00  0.00     0.021 A 
ATOM      7  C12 <0> d   1      -5.460   4.984  -0.221  0.00  0.00     0.041 A 
ATOM      8  C13 <0> d   1      -6.072   3.752  -0.006  0.00  0.00     0.118 A 
ATOM      9  C14 <0> d   1      -5.318   2.593   0.063  0.00  0.00     0.039 A 
ATOM     10  C15 <0> d   1      -3.937   2.652  -0.083  0.00  0.00     0.101 A 
ATOM     11  O2  <0> d   1      -2.994   1.686  -0.062  0.00  0.00    -0.305 OA
ATOM     12  O4  <0> d   1      -7.421   3.687   0.138  0.00  0.00    -0.191 OA
ENDROOT
BRANCH   9  13
ATOM     13  C16 <0> d   1      -5.994   1.266   0.297  0.00  0.00     0.279 C 
BRANCH  13  14
ATOM     14  N1  <0> d   1      -6.076   1.006   1.741  0.00  0.00    -0.064 N 
ATOM     15  C20 <0> d   1      -6.933  -0.154   2.019  0.00  0.00     0.265 C 
ATOM     16  C19 <0> d   1      -7.057  -0.343   3.533  0.00  0.00     0.300 C 
ATOM     17  N2  <0> d   1      -5.719  -0.529   4.112  0.00  0.00     0.093 N 
ATOM     18  C18 <0> d   1      -4.862   0.632   3.833  0.00  0.00     0.300 C 
ATOM     19  C17 <0> d   1      -4.738   0.820   2.320  0.00  0.00     0.265 C 
ATOM     20  H24 <0> d   1      -6.532   1.887   2.216  0.00  0.00     0.280 HD
BRANCH  17  21
ATOM     21  C21 <0> d   1      -5.801  -0.789   5.555  0.00  0.00     0.298 C 
BRANCH  21  22
ATOM     22  C22 <0> d   1      -6.268  -2.227   5.789  0.00  0.00     0.194 C 
BRANCH  22  23
ATOM     23  O3  <0> d   1      -5.290  -3.134   5.276  0.00  0.00    -0.399 OA
ATOM     24  H21 <0> d   1      -5.453  -4.219   5.354  0.00  0.00     0.209 HD
ENDBRANCH  22  23
ENDBRANCH  21  22
ENDBRANCH  17  21
ENDBRANCH  13  14
ENDBRANCH   9  13
BRANCH   1  25
ATOM     25  C6  <0> d   1      -0.628   0.017  -0.205  0.00  0.00    -0.031 A 
ATOM     26  C1  <0> d   1      -1.841  -0.648   0.016  0.00  0.00     0.014 A 
ATOM     27  C2  <0> d   1      -1.870  -2.023   0.079  0.00  0.00     0.040 A 
ATOM     28  C3  <0> d   1      -0.700  -2.756  -0.077  0.00  0.00     0.105 A 
ATOM     29  O6  <0> d   1      -0.470  -4.100  -0.057  0.00  0.00    -0.323 OA
ATOM     30  C4  <0> d   1       0.513  -2.101  -0.297  0.00  0.00     0.105 A 
ATOM     31  C23 <0> d   1       0.948  -4.246   0.143  0.00  0.00     0.352 C 
ATOM     32  O5  <0> d   1       1.499  -3.038  -0.414  0.00  0.00    -0.323 OA
ATOM     33  C5  <0> d   1       0.551  -0.723  -0.367  0.00  0.00     0.051 A 
ENDBRANCH   1  25
TORSDOF 6
