REMARK  4 active torsions:
REMARK  status: ('A' for Active; 'I' for Inactive)
REMARK    1  A    between atoms: C2_2  and  N1_3 
REMARK    2  A    between atoms: N2_6  and  C7_9 
REMARK    3  A    between atoms: C7_9  and  C8_10 
REMARK    4  A    between atoms: C15_18  and  C16_19 
ROOT
ATOM      1  C8  <0> d   1      -3.297   4.669   0.044  0.00  0.00     0.041 A 
ATOM      2  C9  <0> d   1      -4.681   4.734   0.051  0.00  0.00     0.118 A 
ATOM      3  C10 <0> d   1      -5.444   3.569   0.049  0.00  0.00     0.041 A 
ATOM      4  C11 <0> d   1      -4.834   2.347   0.038  0.00  0.00     0.021 A 
ATOM      5  C12 <0> d   1      -3.442   2.266   0.031  0.00  0.00     0.051 A 
ATOM      6  C13 <0> d   1      -2.662   3.435   0.033  0.00  0.00     0.101 A 
ATOM      7  O1  <0> d   1      -1.357   3.087   0.031  0.00  0.00    -0.305 OA
ATOM      8  C14 <0> d   1      -1.203   1.742   0.017  0.00  0.00     0.128 A 
ATOM      9  C15 <0> d   1      -0.013   1.076   0.008  0.00  0.00     0.060 C 
ATOM     10  C21 <0> d   1      -2.490   1.141   0.020  0.00  0.00     0.218 A 
ATOM     11  O2  <0> d   1      -2.752  -0.051   0.015  0.00  0.00    -0.284 OA
ATOM     12  O3  <0> d   1      -5.298   5.943   0.061  0.00  0.00    -0.191 OA
ENDROOT
BRANCH   1  13
ATOM     13  C7  <0> d   1      -2.482   5.936   0.046  0.00  0.00     0.317 C 
BRANCH  13  14
ATOM     14  N2  <0> d   1      -2.225   6.356  -1.338  0.00  0.00     0.096 N 
ATOM     15  C4  <0> d   1      -1.642   7.704  -1.380  0.00  0.00     0.300 C 
ATOM     16  C3  <0> d   1      -1.464   8.135  -2.837  0.00  0.00     0.265 C 
ATOM     17  N1  <0> d   1      -0.599   7.169  -3.529  0.00  0.00    -0.068 N 
ATOM     18  C6  <0> d   1      -1.182   5.820  -3.487  0.00  0.00     0.265 C 
ATOM     19  H24 <0> d   1       0.366   7.138  -3.001  0.00  0.00     0.280 HD
ATOM     20  C5  <0> d   1      -1.360   5.390  -2.029  0.00  0.00     0.300 C 
BRANCH  17  21
ATOM     21  C2  <0> d   1      -0.342   7.588  -4.913  0.00  0.00     0.230 C 
ATOM     22  C1  <0> d   1       0.750   6.705  -5.519  0.00  0.00     0.034 C 
ENDBRANCH  17  21
ENDBRANCH  13  14
ENDBRANCH   1  13
BRANCH   9  23
ATOM     23  C16 <0> d   1       1.201   1.799   0.000  0.00  0.00     0.013 A 
ATOM     24  S1  <0> d   1       1.459   3.564   0.008  0.00  0.00    -0.102 SA
ATOM     25  C19 <0> d   1       3.192   3.575  -0.008  0.00  0.00     0.051 A 
ATOM     26  C18 <0> d   1       3.513   2.253  -0.018  0.00  0.00     0.015 A 
ATOM     27  C17 <0> d   1       2.508   1.319  -0.009  0.00  0.00    -0.044 A 
ATOM     28  C20 <0> d   1       2.805  -0.158  -0.013  0.00  0.00     0.049 C 
ENDBRANCH   9  23
TORSDOF 4
