REMARK  10 active torsions:
REMARK  status: ('A' for Active; 'I' for Inactive)
REMARK    1  A    between atoms: O1_2  and  C2_3 
REMARK    2  A    between atoms: C5_6  and  C8_9 
REMARK    3  A    between atoms: C10_14  and  C11_15 
REMARK    4  A    between atoms: C14_18  and  O3_22 
REMARK    5  A    between atoms: C16_20  and  O2_21 
REMARK    6  A    between atoms: O3_22  and  C17_23 
REMARK    7  A    between atoms: C17_23  and  C18_24 
REMARK    8  A    between atoms: C18_24  and  N3_25 
REMARK    9  A    between atoms: N4_28  and  C23_31 
REMARK   10  A    between atoms: C23_31  and  C24_32 
ROOT
ATOM      1  C11 <0> d   1       2.854  -4.435  -2.498  0.00  0.00     0.026 A 
ATOM      2  C12 <0> d   1       4.155  -4.032  -2.189  0.00  0.00     0.019 A 
ATOM      3  C13 <0> d   1       4.794  -4.555  -1.086  0.00  0.00     0.038 A 
ATOM      4  C14 <0> d   1       4.148  -5.484  -0.279  0.00  0.00     0.071 A 
ATOM      5  C15 <0> d   1       2.856  -5.891  -0.579  0.00  0.00     0.074 A 
ATOM      6  C16 <0> d   1       2.203  -5.367  -1.681  0.00  0.00     0.081 A 
ENDROOT
BRANCH   4   7
ATOM      7  O3  <0> d   1       4.785  -5.997   0.806  0.00  0.00    -0.349 OA
BRANCH   7   8
ATOM      8  C17 <0> d   1       6.114  -5.535   1.057  0.00  0.00     0.206 C 
BRANCH   8   9
ATOM      9  C18 <0> d   1       6.663  -6.218   2.311  0.00  0.00     0.299 C 
BRANCH   9  10
ATOM     10  N3  <0> d   1       6.758  -7.665   2.079  0.00  0.00     0.093 N 
ATOM     11  C22 <0> d   1       7.916  -7.987   1.232  0.00  0.00     0.302 C 
ATOM     12  C21 <0> d   1       7.935  -9.491   0.948  0.00  0.00     0.303 C 
ATOM     13  N4  <0> d   1       7.995 -10.226   2.220  0.00  0.00     0.096 N 
ATOM     14  C20 <0> d   1       6.838  -9.904   3.066  0.00  0.00     0.303 C 
ATOM     15  C19 <0> d   1       6.819  -8.400   3.350  0.00  0.00     0.302 C 
BRANCH  13  16
ATOM     16  C23 <0> d   1       8.091 -11.673   1.987  0.00  0.00     0.311 C 
BRANCH  16  17
ATOM     17  C24 <0> d   1       9.410 -11.990   1.331  0.00  0.00    -0.030 A 
ATOM     18  C29 <0> d   1      10.517 -12.275   2.107  0.00  0.00     0.009 A 
ATOM     19  C28 <0> d   1      11.726 -12.570   1.504  0.00  0.00     0.001 A 
ATOM     20  C27 <0> d   1      11.829 -12.571   0.126  0.00  0.00     0.000 A 
ATOM     21  C26 <0> d   1      10.723 -12.281  -0.650  0.00  0.00     0.001 A 
ATOM     22  C25 <0> d   1       9.513 -11.990  -0.048  0.00  0.00     0.009 A 
ENDBRANCH  16  17
ENDBRANCH  13  16
ENDBRANCH   9  10
ENDBRANCH   8   9
ENDBRANCH   7   8
ENDBRANCH   4   7
BRANCH   6  23
ATOM     23  O2  <0> d   1       0.935  -5.760  -1.972  0.00  0.00    -0.360 OA
ATOM     24  H13 <0> d   1       0.886  -6.532  -2.553  0.00  0.00     0.217 HD
ENDBRANCH   6  23
BRANCH   1  25
ATOM     25  C10 <0> d   1       2.166  -3.875  -3.678  0.00  0.00     0.075 A 
ATOM     26  C8  <0> d   1       1.772  -4.573  -4.812  0.00  0.00     0.022 A 
ATOM     27  C9  <0> d   1       1.152  -3.652  -5.675  0.00  0.00     0.153 A 
ATOM     28  N1  <0> d   1       1.171  -2.474  -5.110  0.00  0.00    -0.186 NA
ATOM     29  N2  <0> d   1       1.800  -2.575  -3.863  0.00  0.00    -0.277 N 
ATOM     30  H1  <0> d   1       1.945  -1.848  -3.238  0.00  0.00     0.189 HD
BRANCH  26  31
ATOM     31  C5  <0> d   1       1.964  -6.022  -5.064  0.00  0.00    -0.022 A 
ATOM     32  C4  <0> d   1       0.867  -6.831  -5.359  0.00  0.00     0.015 A 
ATOM     33  C3  <0> d   1       1.049  -8.178  -5.593  0.00  0.00     0.037 A 
ATOM     34  C2  <0> d   1       2.322  -8.728  -5.536  0.00  0.00     0.068 A 
ATOM     35  C7  <0> d   1       3.415  -7.926  -5.238  0.00  0.00     0.037 A 
ATOM     36  C6  <0> d   1       3.241  -6.577  -5.008  0.00  0.00     0.015 A 
BRANCH  34  37
ATOM     37  O1  <0> d   1       2.498 -10.056  -5.767  0.00  0.00    -0.356 OA
ATOM     38  C1  <0> d   1       1.330 -10.822  -6.069  0.00  0.00     0.210 C 
ENDBRANCH  34  37
ENDBRANCH  26  31
ENDBRANCH   1  25
TORSDOF 10
