REMARK  6 active torsions:
REMARK  status: ('A' for Active; 'I' for Inactive)
REMARK    1  A    between atoms: C5_5  and  C19_23 
REMARK    2  A    between atoms: C10_11  and  C11_12 
REMARK    3  A    between atoms: C15_16  and  O3_20 
REMARK    4  A    between atoms: C16_17  and  O2_18 
REMARK    5  A    between atoms: C19_23  and  N1_24 
REMARK    6  A    between atoms: N2_27  and  C24_30 
ROOT
ATOM      1  C1  <0> d   1       0.229   2.614   1.072  0.00  0.00     0.049 C 
ATOM      2  C2  <0> d   1       0.739   1.250   0.683  0.00  0.00    -0.042 A 
ATOM      3  C3  <0> d   1       1.295   1.053  -0.550  0.00  0.00     0.048 A 
ATOM      4  C4  <0> d   1       1.767  -0.205  -0.911  0.00  0.00     0.118 A 
ATOM      5  C5  <0> d   1       1.679  -1.271  -0.029  0.00  0.00     0.039 A 
ATOM      6  C6  <0> d   1       1.116  -1.088   1.227  0.00  0.00     0.102 A 
ATOM      7  C7  <0> d   1       0.649   0.188   1.583  0.00  0.00     0.057 A 
ATOM      8  C8  <0> d   1       0.123   0.071   2.955  0.00  0.00     0.219 A 
ATOM      9  O1  <0> d   1      -0.380   0.946   3.639  0.00  0.00    -0.284 OA
ATOM     10  C9  <0> d   1       0.342  -1.338   3.314  0.00  0.00     0.128 A 
ATOM     11  C10 <0> d   1       0.016  -1.924   4.495  0.00  0.00     0.055 C 
ATOM     12  O4  <0> d   1       0.917  -1.947   2.250  0.00  0.00    -0.305 OA
ATOM     13  O5  <0> d   1       2.317  -0.391  -2.138  0.00  0.00    -0.191 OA
ENDROOT
BRANCH   5  14
ATOM     14  C19 <0> d   1       2.193  -2.628  -0.434  0.00  0.00     0.279 C 
BRANCH  14  15
ATOM     15  N1  <0> d   1       3.607  -2.749  -0.055  0.00  0.00    -0.064 N 
ATOM     16  C23 <0> d   1       4.074  -4.112  -0.341  0.00  0.00     0.255 C 
ATOM     17  C22 <0> d   1       5.513  -4.273   0.160  0.00  0.00     0.150 C 
ATOM     18  N2  <0> d   1       6.337  -3.211  -0.439  0.00  0.00    -0.378 N 
ATOM     19  C21 <0> d   1       5.857  -1.824  -0.341  0.00  0.00     0.150 C 
ATOM     20  C20 <0> d   1       4.402  -1.778  -0.817  0.00  0.00     0.255 C 
ATOM     21  H29 <0> d   1       3.707  -2.561   0.931  0.00  0.00     0.280 HD
BRANCH  18  22
ATOM     22  C24 <0> d   1       7.540  -3.512  -1.082  0.00  0.00     0.031 A 
ATOM     23  C29 <0> d   1       8.042  -4.806  -1.048  0.00  0.00     0.053 A 
ATOM     24  C28 <0> d   1       9.230  -5.101  -1.691  0.00  0.00     0.036 A 
ATOM     25  C27 <0> d   1       9.923  -4.105  -2.357  0.00  0.00     0.024 A 
ATOM     26 Cl1  <0> d   1       9.856  -6.720  -1.656  0.00  0.00    -0.084 Cl
ATOM     27  C26 <0> d   1       9.428  -2.815  -2.387  0.00  0.00     0.004 A 
ATOM     28  C25 <0> d   1       8.238  -2.515  -1.752  0.00  0.00     0.029 A 
ENDBRANCH  18  22
ENDBRANCH  14  15
ENDBRANCH   5  14
BRANCH  11  29
ATOM     29  C11 <0> d   1       0.216  -3.367   4.678  0.00  0.00     0.003 A 
ATOM     30  C16 <0> d   1       0.136  -3.934   5.959  0.00  0.00     0.111 A 
ATOM     31  C15 <0> d   1       0.322  -5.302   6.117  0.00  0.00     0.102 A 
ATOM     32  C14 <0> d   1       0.596  -6.097   5.016  0.00  0.00     0.040 A 
ATOM     33  C13 <0> d   1       0.680  -5.537   3.751  0.00  0.00     0.004 A 
ATOM     34  C12 <0> d   1       0.493  -4.185   3.574  0.00  0.00     0.014 A 
BRANCH  30  35
ATOM     35  O2  <0> d   1      -0.126  -3.151   7.037  0.00  0.00    -0.352 OA
ATOM     36  C17 <0> d   1      -1.499  -2.970   7.388  0.00  0.00     0.210 C 
ENDBRANCH  30  35
BRANCH  31  37
ATOM     37  O3  <0> d   1       0.241  -5.860   7.355  0.00  0.00    -0.353 OA
ATOM     38  C18 <0> d   1       0.449  -7.271   7.446  0.00  0.00     0.210 C 
ENDBRANCH  31  37
ENDBRANCH  11  29
TORSDOF 6
