REMARK  10 active torsions:
REMARK  status: ('A' for Active; 'I' for Inactive)
REMARK    1  A    between atoms: O1_2  and  C2_3 
REMARK    2  A    between atoms: C2_3  and  C3_4 
REMARK    3  A    between atoms: C3_4  and  N1_5 
REMARK    4  A    between atoms: N1_5  and  C4_6 
REMARK    5  A    between atoms: N1_5  and  C7_10 
REMARK    6  A    between atoms: C4_6  and  C5_7 
REMARK    7  A    between atoms: C5_7  and  O2_8 
REMARK    8  A    between atoms: C7_10  and  C8_11 
REMARK    9  A    between atoms: C15_19  and  C16_20 
REMARK   10  A    between atoms: C17_21  and  C18_22 
ROOT
ATOM      1  C8  <0> d   1      -0.170  -3.669   1.954  0.00  0.00     0.039 A 
ATOM      2  C9  <0> d   1      -1.125  -4.017   1.012  0.00  0.00     0.118 A 
ATOM      3  C10 <0> d   1      -0.766  -4.723  -0.132  0.00  0.00     0.041 A 
ATOM      4  C11 <0> d   1       0.537  -5.081  -0.338  0.00  0.00     0.021 A 
ATOM      5  C12 <0> d   1       1.509  -4.738   0.602  0.00  0.00     0.051 A 
ATOM      6  C13 <0> d   1       1.159  -4.021   1.758  0.00  0.00     0.101 A 
ATOM      7  O3  <0> d   1       2.262  -3.801   2.507  0.00  0.00    -0.305 OA
ATOM      8  C14 <0> d   1       3.371  -4.323   1.933  0.00  0.00     0.127 A 
ATOM      9  C15 <0> d   1       4.639  -4.271   2.437  0.00  0.00     0.041 C 
ATOM     10  C24 <0> d   1       2.963  -4.966   0.679  0.00  0.00     0.218 A 
ATOM     11  O4  <0> d   1       3.670  -5.548  -0.126  0.00  0.00    -0.284 OA
ATOM     12  O5  <0> d   1      -2.422  -3.667   1.208  0.00  0.00    -0.191 OA
ENDROOT
BRANCH   1  13
ATOM     13  C7  <0> d   1      -0.573  -2.905   3.189  0.00  0.00     0.279 C 
BRANCH  13  14
ATOM     14  N1  <0> d   1      -0.406  -1.465   2.950  0.00  0.00    -0.063 N 
ATOM     15  H27 <0> d   1       0.547  -1.278   2.677  0.00  0.00     0.280 HD
BRANCH  14  16
ATOM     16  C3  <0> d   1      -1.315  -1.039   1.877  0.00  0.00     0.261 C 
BRANCH  16  17
ATOM     17  C2  <0> d   1      -1.042   0.426   1.528  0.00  0.00     0.194 C 
BRANCH  17  18
ATOM     18  O1  <0> d   1       0.285   0.552   1.013  0.00  0.00    -0.394 OA
ATOM     19  C1  <0> d   1       0.683   1.901   0.757  0.00  0.00     0.201 C 
ENDBRANCH  17  18
ENDBRANCH  16  17
ENDBRANCH  14  16
BRANCH  14  20
ATOM     20  C4  <0> d   1      -0.718  -0.725   4.179  0.00  0.00     0.261 C 
BRANCH  20  21
ATOM     21  C5  <0> d   1       0.326  -1.050   5.249  0.00  0.00     0.194 C 
BRANCH  21  22
ATOM     22  O2  <0> d   1       1.601  -0.553   4.837  0.00  0.00    -0.394 OA
ATOM     23  C6  <0> d   1       2.666  -0.869   5.736  0.00  0.00     0.201 C 
ENDBRANCH  21  22
ENDBRANCH  20  21
ENDBRANCH  14  20
ENDBRANCH  13  14
ENDBRANCH   1  13
BRANCH   9  24
ATOM     24  C16 <0> d   1       4.862  -3.765   3.732  0.00  0.00     0.004 C 
ATOM     25  C17 <0> d   1       6.111  -3.772   4.256  0.00  0.00     0.011 C 
BRANCH  25  26
ATOM     26  C18 <0> d   1       6.324  -3.375   5.655  0.00  0.00    -0.036 A 
ATOM     27  C23 <0> d   1       7.606  -3.423   6.213  0.00  0.00     0.011 A 
ATOM     28  C22 <0> d   1       7.798  -3.043   7.524  0.00  0.00     0.001 A 
ATOM     29  C21 <0> d   1       6.724  -2.626   8.292  0.00  0.00     0.000 A 
ATOM     30  C20 <0> d   1       5.452  -2.581   7.750  0.00  0.00     0.001 A 
ATOM     31  C19 <0> d   1       5.244  -2.951   6.438  0.00  0.00     0.011 A 
ENDBRANCH  25  26
ENDBRANCH   9  24
TORSDOF 10
