REMARK  5 active torsions:
REMARK  status: ('A' for Active; 'I' for Inactive)
REMARK    1  A    between atoms: C3_4  and  C11_13 
REMARK    2  A    between atoms: C8_9  and  O1_11 
REMARK    3  A    between atoms: C17_20  and  O4_31 
REMARK    4  A    between atoms: C18_21  and  C20_24 
REMARK    5  A    between atoms: C20_24  and  N2_25 
ROOT
ATOM      1  C11 <0> d   1      -1.345  -4.051   4.050  0.00  0.00     0.055 C 
ATOM      2  C12 <0> d   1      -1.304  -3.905   2.696  0.00  0.00     0.128 A 
ATOM      3  C13 <0> d   1      -1.224  -4.960   1.749  0.00  0.00     0.218 A 
ATOM      4  O2  <0> d   1      -1.177  -6.158   1.976  0.00  0.00    -0.284 OA
ATOM      5  C14 <0> d   1      -1.208  -4.298   0.433  0.00  0.00     0.051 A 
ATOM      6  C15 <0> d   1      -1.141  -4.768  -0.878  0.00  0.00     0.021 A 
ATOM      7  C16 <0> d   1      -1.145  -3.883  -1.919  0.00  0.00     0.038 A 
ATOM      8  C17 <0> d   1      -1.220  -2.514  -1.676  0.00  0.00     0.076 A 
ATOM      9  C18 <0> d   1      -1.281  -2.032  -0.378  0.00  0.00     0.036 A 
ATOM     10  C19 <0> d   1      -1.278  -2.919   0.690  0.00  0.00     0.101 A 
ATOM     11  O3  <0> d   1      -1.333  -2.728   2.026  0.00  0.00    -0.305 OA
ENDROOT
BRANCH   1  12
ATOM     12  C3  <0> d   1      -1.427  -2.873   4.910  0.00  0.00    -0.005 A 
ATOM     13  C2  <0> d   1      -1.466  -1.555   4.506  0.00  0.00     0.103 A 
ATOM     14  N1  <0> d   1      -1.545  -0.751   5.594  0.00  0.00    -0.360 N 
ATOM     15  C1  <0> d   1      -1.607   0.712   5.548  0.00  0.00     0.156 C 
ATOM     16  C5  <0> d   1      -1.552  -1.503   6.754  0.00  0.00     0.045 A 
ATOM     17  C4  <0> d   1      -1.480  -2.855   6.385  0.00  0.00     0.005 A 
ATOM     18  C6  <0> d   1      -1.614  -1.165   8.101  0.00  0.00     0.033 A 
ATOM     19  C9  <0> d   1      -1.470  -3.847   7.362  0.00  0.00     0.051 A 
ATOM     20  C8  <0> d   1      -1.533  -3.493   8.697  0.00  0.00     0.069 A 
ATOM     21  C7  <0> d   1      -1.604  -2.153   9.062  0.00  0.00     0.039 A 
BRANCH  20  22
ATOM     22  O1  <0> d   1      -1.525  -4.457   9.655  0.00  0.00    -0.356 OA
ATOM     23  C10 <0> d   1      -1.591  -4.022  11.014  0.00  0.00     0.210 C 
ENDBRANCH  20  22
ENDBRANCH   1  12
BRANCH   9  24
ATOM     24  C20 <0> d   1      -1.356  -0.548  -0.128  0.00  0.00     0.279 C 
BRANCH  24  25
ATOM     25  N2  <0> d   1       0.002  -0.004   0.002  0.00  0.00    -0.067 N 
ATOM     26  C25 <0> d   1       0.669  -0.533   1.199  0.00  0.00     0.235 C 
ATOM     27  C24 <0> d   1       2.125  -0.061   1.224  0.00  0.00     0.028 C 
ATOM     28  C23 <0> d   1       2.160   1.470   1.231  0.00  0.00     0.003 C 
ATOM     29  C22 <0> d   1       1.417   1.995  -0.001  0.00  0.00     0.028 C 
ATOM     30  C21 <0> d   1      -0.018   1.464   0.010  0.00  0.00     0.235 C 
ATOM     31  H26 <0> d   1       0.582  -0.327  -0.875  0.00  0.00     0.280 HD
ENDBRANCH  24  25
ENDBRANCH   9  24
BRANCH   8  32
ATOM     32  O4  <0> d   1      -1.229  -1.644  -2.718  0.00  0.00    -0.360 OA
ATOM     33  H27 <0> d   1      -1.288  -0.562  -2.530  0.00  0.00     0.217 HD
ENDBRANCH   8  32
TORSDOF 5
