REMARK  5 active torsions:
REMARK  status: ('A' for Active; 'I' for Inactive)
REMARK    1  A    between atoms: C3_4  and  C11_13 
REMARK    2  A    between atoms: C8_9  and  O1_11 
REMARK    3  A    between atoms: C17_20  and  O4_28 
REMARK    4  A    between atoms: C18_21  and  C20_24 
REMARK    5  A    between atoms: C20_24  and  N2_25 
ROOT
ATOM      1  C11 <0> d   1      -4.204   5.285   1.579  0.00  0.00     0.055 C 
ATOM      2  C12 <0> d   1      -4.065   4.110   0.902  0.00  0.00     0.128 A 
ATOM      3  C13 <0> d   1      -5.097   3.165   0.661  0.00  0.00     0.218 A 
ATOM      4  O2  <0> d   1      -6.264   3.236   1.009  0.00  0.00    -0.284 OA
ATOM      5  C14 <0> d   1      -4.456   2.079  -0.101  0.00  0.00     0.051 A 
ATOM      6  C15 <0> d   1      -4.918   0.876  -0.634  0.00  0.00     0.021 A 
ATOM      7  C16 <0> d   1      -4.059   0.055  -1.308  0.00  0.00     0.038 A 
ATOM      8  C17 <0> d   1      -2.724   0.419  -1.469  0.00  0.00     0.076 A 
ATOM      9  C18 <0> d   1      -2.249   1.608  -0.941  0.00  0.00     0.035 A 
ATOM     10  C19 <0> d   1      -3.110   2.452  -0.253  0.00  0.00     0.101 A 
ATOM     11  O3  <0> d   1      -2.920   3.647   0.347  0.00  0.00    -0.305 OA
ENDROOT
BRANCH   1  12
ATOM     12  C3  <0> d   1      -3.053   6.167   1.754  0.00  0.00    -0.005 A 
ATOM     13  C2  <0> d   1      -1.768   5.949   1.304  0.00  0.00     0.103 A 
ATOM     14  N1  <0> d   1      -0.981   6.995   1.659  0.00  0.00    -0.360 N 
ATOM     15  C1  <0> d   1       0.445   7.110   1.346  0.00  0.00     0.156 C 
ATOM     16  C5  <0> d   1      -1.711   7.934   2.362  0.00  0.00     0.045 A 
ATOM     17  C4  <0> d   1      -3.031   7.465   2.455  0.00  0.00     0.005 A 
ATOM     18  C6  <0> d   1      -1.377   9.155   2.939  0.00  0.00     0.033 A 
ATOM     19  C9  <0> d   1      -3.995   8.218   3.120  0.00  0.00     0.051 A 
ATOM     20  C8  <0> d   1      -3.646   9.430   3.686  0.00  0.00     0.069 A 
ATOM     21  C7  <0> d   1      -2.337   9.894   3.594  0.00  0.00     0.039 A 
BRANCH  20  22
ATOM     22  O1  <0> d   1      -4.584  10.171   4.336  0.00  0.00    -0.356 OA
ATOM     23  C10 <0> d   1      -4.154  11.412   4.898  0.00  0.00     0.210 C 
ENDBRANCH  20  22
ENDBRANCH   1  12
BRANCH   9  24
ATOM     24  C20 <0> d   1      -0.802   1.987  -1.117  0.00  0.00     0.278 C 
BRANCH  24  25
ATOM     25  N2  <0> d   1      -0.018   1.465   0.010  0.00  0.00    -0.075 N 
ATOM     26  C21 <0> d   1       0.002  -0.004   0.002  0.00  0.00     0.269 C 
ATOM     27  C22 <0> d   1       1.346   2.010  -0.000  0.00  0.00     0.269 C 
ATOM     28  H22 <0> d   1      -0.505   1.791   0.941  0.00  0.00     0.279 HD
ENDBRANCH  24  25
ENDBRANCH   9  24
BRANCH   8  29
ATOM     29  O4  <0> d   1      -1.881  -0.402  -2.147  0.00  0.00    -0.360 OA
ATOM     30  H23 <0> d   1      -0.826  -0.119  -2.276  0.00  0.00     0.217 HD
ENDBRANCH   8  29
TORSDOF 5
