REMARK  7 active torsions:
REMARK  status: ('A' for Active; 'I' for Inactive)
REMARK    1  A    between atoms: O1_2  and  C2_3 
REMARK    2  A    between atoms: C5_6  and  C8_9 
REMARK    3  A    between atoms: C10_14  and  C11_15 
REMARK    4  A    between atoms: C14_18  and  O3_22 
REMARK    5  A    between atoms: O3_22  and  C17_23 
REMARK    6  A    between atoms: C17_23  and  C18_24 
REMARK       I    between atoms: C18_24  and  N3_26 
REMARK    7  A    between atoms: N3_26  and  N4_27 
ROOT
ATOM      1  C11 <0> d   1       0.639  -4.064   5.070  0.00  0.00     0.032 A 
ATOM      2  C12 <0> d   1      -0.429  -3.216   4.779  0.00  0.00     0.019 A 
ATOM      3  C13 <0> d   1      -1.710  -3.722   4.706  0.00  0.00     0.038 A 
ATOM      4  C14 <0> d   1      -1.940  -5.075   4.920  0.00  0.00     0.072 A 
ATOM      5  C15 <0> d   1      -0.882  -5.925   5.210  0.00  0.00     0.077 A 
ATOM      6  C16 <0> d   1       0.407  -5.427   5.280  0.00  0.00     0.122 A 
ATOM      7  O2  <0> d   1       1.445  -6.259   5.557  0.00  0.00    -0.191 OA
ENDROOT
BRANCH   1   8
ATOM      8  C10 <0> d   1       2.017  -3.523   5.149  0.00  0.00     0.102 A 
ATOM      9  C8  <0> d   1       2.627  -2.650   4.213  0.00  0.00     0.022 A 
ATOM     10  C9  <0> d   1       3.888  -2.390   4.658  0.00  0.00     0.124 A 
ATOM     11  N1  <0> d   1       4.068  -3.066   5.811  0.00  0.00    -0.288 N 
ATOM     12  H1  <0> d   1       4.875  -3.065   6.349  0.00  0.00     0.188 HD
ATOM     13  N2  <0> d   1       2.893  -3.770   6.099  0.00  0.00    -0.174 NA
BRANCH   9  14
ATOM     14  C5  <0> d   1       2.004  -2.114   2.978  0.00  0.00    -0.022 A 
ATOM     15  C4  <0> d   1       1.941  -0.738   2.768  0.00  0.00     0.015 A 
ATOM     16  C3  <0> d   1       1.361  -0.242   1.619  0.00  0.00     0.037 A 
ATOM     17  C2  <0> d   1       0.841  -1.113   0.671  0.00  0.00     0.068 A 
ATOM     18  C7  <0> d   1       0.898  -2.484   0.879  0.00  0.00     0.037 A 
ATOM     19  C6  <0> d   1       1.481  -2.986   2.025  0.00  0.00     0.015 A 
BRANCH  17  20
ATOM     20  O1  <0> d   1       0.271  -0.622  -0.461  0.00  0.00    -0.356 OA
ATOM     21  C1  <0> d   1       0.247   0.799  -0.611  0.00  0.00     0.210 C 
ENDBRANCH  17  20
ENDBRANCH   9  14
ENDBRANCH   1   8
BRANCH   4  22
ATOM     22  O3  <0> d   1      -3.204  -5.567   4.847  0.00  0.00    -0.342 OA
BRANCH  22  23
ATOM     23  C17 <0> d   1      -3.369  -6.967   5.078  0.00  0.00     0.279 C 
BRANCH  23  24
ATOM     24  C18 <0> d   1      -4.828  -7.328   4.956  0.00  0.00     0.255 C 
ATOM     25  O4  <0> d   1      -5.645  -6.470   4.697  0.00  0.00    -0.270 OA
ATOM     26  N3  <0> d   1      -5.224  -8.603   5.136  0.00  0.00    -0.292 N 
ATOM     27  H15 <0> d   1      -4.570  -9.290   5.343  0.00  0.00     0.183 HD
BRANCH  26  28
ATOM     28  N4  <0> d   1      -6.546  -8.930   5.025  0.00  0.00    -0.247 NA
ATOM     29  H16 <0> d   1      -6.689  -9.916   5.185  0.00  0.00     0.143 HD
ATOM     30  H17 <0> d   1      -7.109  -8.377   5.653  0.00  0.00     0.143 HD
ENDBRANCH  26  28
ENDBRANCH  23  24
ENDBRANCH  22  23
ENDBRANCH   4  22
TORSDOF 7
