REMARK  7 active torsions:
REMARK  status: ('A' for Active; 'I' for Inactive)
REMARK    1  A    between atoms: C4_4  and  C7_7 
REMARK    2  A    between atoms: C9_12  and  C10_13 
REMARK    3  A    between atoms: C13_16  and  O2_20 
REMARK    4  A    between atoms: O2_20  and  C16_21 
REMARK    5  A    between atoms: C16_21  and  C17_22 
REMARK    6  A    between atoms: C17_22  and  N3_23 
REMARK    7  A    between atoms: C20_26  and  C23_29 
REMARK       I    between atoms: C23_29  and  N4_31 
ROOT
ATOM      1  C10 <0> d   1       3.206  -2.115   1.973  0.00  0.00     0.032 A 
ATOM      2  C11 <0> d   1       1.899  -1.647   2.098  0.00  0.00     0.019 A 
ATOM      3  C12 <0> d   1       1.107  -2.082   3.140  0.00  0.00     0.038 A 
ATOM      4  C13 <0> d   1       1.609  -2.986   4.068  0.00  0.00     0.071 A 
ATOM      5  C14 <0> d   1       2.909  -3.456   3.952  0.00  0.00     0.077 A 
ATOM      6  C15 <0> d   1       3.708  -3.030   2.905  0.00  0.00     0.122 A 
ATOM      7  O1  <0> d   1       4.979  -3.494   2.786  0.00  0.00    -0.191 OA
ENDROOT
BRANCH   4   8
ATOM      8  O2  <0> d   1       0.825  -3.410   5.093  0.00  0.00    -0.349 OA
BRANCH   8   9
ATOM      9  C16 <0> d   1       1.403  -4.339   6.012  0.00  0.00     0.203 C 
BRANCH   9  10
ATOM     10  C17 <0> d   1       0.377  -4.698   7.088  0.00  0.00     0.261 C 
BRANCH  10  11
ATOM     11  N3  <0> d   1      -0.750  -5.411   6.473  0.00  0.00    -0.069 N 
ATOM     12  C22 <0> d   1      -1.787  -5.649   7.484  0.00  0.00     0.235 C 
ATOM     13  C21 <0> d   1      -2.998  -6.319   6.830  0.00  0.00     0.042 C 
ATOM     14  C20 <0> d   1      -2.565  -7.653   6.215  0.00  0.00     0.081 C 
ATOM     15  C19 <0> d   1      -1.432  -7.401   5.217  0.00  0.00     0.042 C 
ATOM     16  C18 <0> d   1      -0.280  -6.691   5.930  0.00  0.00     0.235 C 
ATOM     17  H26 <0> d   1      -1.132  -4.851   5.725  0.00  0.00     0.280 HD
BRANCH  14  18
ATOM     18  C23 <0> d   1      -3.735  -8.282   5.502  0.00  0.00     0.219 C 
ATOM     19  O3  <0> d   1      -3.670  -8.507   4.312  0.00  0.00    -0.273 OA
ATOM     20  N4  <0> d   1      -4.853  -8.594   6.186  0.00  0.00    -0.370 N 
ATOM     21  H24 <0> d   1      -4.905  -8.415   7.138  0.00  0.00     0.159 HD
ATOM     22  H25 <0> d   1      -5.606  -8.999   5.727  0.00  0.00     0.159 HD
ENDBRANCH  14  18
ENDBRANCH  10  11
ENDBRANCH   9  10
ENDBRANCH   8   9
ENDBRANCH   4   8
BRANCH   1  23
ATOM     23  C9  <0> d   1       4.059  -1.650   0.854  0.00  0.00     0.102 A 
ATOM     24  C7  <0> d   1       3.680  -1.577  -0.510  0.00  0.00     0.022 A 
ATOM     25  C8  <0> d   1       4.747  -1.094  -1.206  0.00  0.00     0.124 A 
ATOM     26  N1  <0> d   1       5.749  -0.879  -0.330  0.00  0.00    -0.288 N 
ATOM     27  H1  <0> d   1       6.630  -0.536  -0.548  0.00  0.00     0.188 HD
ATOM     28  N2  <0> d   1       5.303  -1.235   0.949  0.00  0.00    -0.174 NA
BRANCH  24  29
ATOM     29  C4  <0> d   1       2.361  -1.952  -1.076  0.00  0.00    -0.022 A 
ATOM     30  C3  <0> d   1       1.630  -1.028  -1.820  0.00  0.00     0.012 A 
ATOM     31  C2  <0> d   1       0.404  -1.382  -2.344  0.00  0.00     0.001 A 
ATOM     32  C1  <0> d   1      -0.101  -2.652  -2.133  0.00  0.00     0.000 A 
ATOM     33  C6  <0> d   1       0.620  -3.574  -1.395  0.00  0.00     0.001 A 
ATOM     34  C5  <0> d   1       1.847  -3.231  -0.866  0.00  0.00     0.012 A 
ENDBRANCH  24  29
ENDBRANCH   1  23
TORSDOF 7
