REMARK  3 active torsions:
REMARK  status: ('A' for Active; 'I' for Inactive)
REMARK    1  A    between atoms: C9_10  and  C10_11 
REMARK    2  A    between atoms: C13_14  and  C16_17 
REMARK    3  A    between atoms: N1_26  and  C25_29 
ROOT
ATOM      1  C1  <0> d   1       0.077   1.497   0.006  0.00  0.00     0.054 C 
ATOM      2  C2  <0> d   1       0.090  -0.010   0.000  0.00  0.00     0.007 A 
ATOM      3  C3  <0> d   1       0.112  -0.697  -1.205  0.00  0.00     0.087 A 
ATOM      4  C4  <0> d   1       0.125  -2.088  -1.224  0.00  0.00     0.003 A 
ATOM      5  C5  <0> d   1       0.115  -2.790  -0.049  0.00  0.00     0.030 A 
ATOM      6  C6  <0> d   1       0.094  -2.111   1.169  0.00  0.00     0.052 A 
ATOM      7  C7  <0> d   1       0.087  -0.707   1.201  0.00  0.00     0.099 A 
ATOM      8  O1  <0> d   1       0.073  -0.281   2.482  0.00  0.00    -0.305 OA
ATOM      9  C8  <0> d   1       0.074  -1.313   3.357  0.00  0.00     0.127 A 
ATOM     10  C9  <0> d   1       0.062  -1.218   4.711  0.00  0.00     0.053 C 
ATOM     11  C22 <0> d   1       0.079  -2.559   2.574  0.00  0.00     0.218 A 
ATOM     12  O2  <0> d   1       0.082  -3.704   2.992  0.00  0.00    -0.284 OA
ATOM     13  C23 <0> d   1       0.152  -2.840  -2.531  0.00  0.00     0.279 C 
ATOM     14  N1  <0> d   1      -0.274  -1.952  -3.621  0.00  0.00    -0.042 N 
ATOM     15  C24 <0> d   1       0.499  -0.703  -3.550  0.00  0.00     0.410 C 
ATOM     16  O3  <0> d   1       0.119   0.006  -2.368  0.00  0.00    -0.323 OA
ATOM     17  H24 <0> d   1      -1.257  -1.747  -3.525  0.00  0.00     0.283 HD
ENDROOT
BRANCH  10  18
ATOM     18  C10 <0> d   1       0.162   0.098   5.355  0.00  0.00    -0.033 A 
ATOM     19  C15 <0> d   1       0.140   1.263   4.577  0.00  0.00     0.012 A 
ATOM     20  C14 <0> d   1       0.229   2.486   5.179  0.00  0.00     0.013 A 
ATOM     21  C13 <0> d   1       0.351   2.575   6.567  0.00  0.00    -0.026 A 
ATOM     22  C12 <0> d   1       0.378   1.415   7.344  0.00  0.00     0.013 A 
ATOM     23  C11 <0> d   1       0.284   0.190   6.747  0.00  0.00     0.012 A 
BRANCH  21  24
ATOM     24  C16 <0> d   1       0.452   3.903   7.217  0.00  0.00    -0.026 A 
ATOM     25  C21 <0> d   1       0.426   5.064   6.445  0.00  0.00     0.012 A 
ATOM     26  C20 <0> d   1       0.515   6.298   7.057  0.00  0.00     0.001 A 
ATOM     27  C19 <0> d   1       0.641   6.384   8.431  0.00  0.00     0.000 A 
ATOM     28  C18 <0> d   1       0.673   5.236   9.202  0.00  0.00     0.001 A 
ATOM     29  C17 <0> d   1       0.579   3.996   8.603  0.00  0.00     0.012 A 
ENDBRANCH  21  24
ENDBRANCH  10  18
BRANCH  14  30
ATOM     30  C25 <0> d   1      -0.031  -2.608  -4.913  0.00  0.00     0.191 A 
ATOM     31  C27 <0> d   1      -0.741  -3.938  -5.174  0.00  0.00     0.035 A 
ATOM     32  C26 <0> d   1      -1.196  -2.672  -5.903  0.00  0.00     0.035 A 
ENDBRANCH  14  30
TORSDOF 3
