REMARK  8 active torsions:
REMARK  status: ('A' for Active; 'I' for Inactive)
REMARK    1  A    between atoms: O1_2  and  C2_3 
REMARK    2  A    between atoms: C6_7  and  C9_11 
REMARK    3  A    between atoms: C7_8  and  O2_9 
REMARK    4  A    between atoms: C15_18  and  O7_39 
REMARK    5  A    between atoms: C16_19  and  C18_22 
REMARK    6  A    between atoms: C18_22  and  N1_23 
REMARK    7  A    between atoms: N2_26  and  C23_29 
REMARK    8  A    between atoms: C23_29  and  C24_30 
ROOT
ATOM      1  C9  <0> d   1       1.339  -4.073  -2.317  0.00  0.00     0.055 C 
ATOM      2  C10 <0> d   1       1.853  -4.665  -3.426  0.00  0.00     0.128 A 
ATOM      3  C11 <0> d   1       1.879  -6.107  -3.708  0.00  0.00     0.218 A 
ATOM      4  O3  <0> d   1       1.452  -7.011  -3.011  0.00  0.00    -0.284 OA
ATOM      5  C12 <0> d   1       2.535  -6.215  -5.023  0.00  0.00     0.051 A 
ATOM      6  C13 <0> d   1       2.861  -7.298  -5.841  0.00  0.00     0.021 A 
ATOM      7  C14 <0> d   1       3.484  -7.083  -7.038  0.00  0.00     0.038 A 
ATOM      8  C15 <0> d   1       3.794  -5.787  -7.443  0.00  0.00     0.076 A 
ATOM      9  C16 <0> d   1       3.477  -4.704  -6.641  0.00  0.00     0.036 A 
ATOM     10  C17 <0> d   1       2.843  -4.904  -5.421  0.00  0.00     0.101 A 
ATOM     11  O4  <0> d   1       2.430  -4.033  -4.475  0.00  0.00    -0.305 OA
ENDROOT
BRANCH   9  12
ATOM     12  C18 <0> d   1       3.819  -3.307  -7.092  0.00  0.00     0.279 C 
BRANCH  12  13
ATOM     13  N1  <0> d   1       2.698  -2.752  -7.862  0.00  0.00    -0.064 N 
ATOM     14  C22 <0> d   1       3.077  -1.440  -8.402  0.00  0.00     0.265 C 
ATOM     15  C21 <0> d   1       1.915  -0.870  -9.220  0.00  0.00     0.300 C 
ATOM     16  N2  <0> d   1       0.731  -0.742  -8.360  0.00  0.00     0.095 N 
ATOM     17  C20 <0> d   1       0.354  -2.044  -7.792  0.00  0.00     0.300 C 
ATOM     18  C19 <0> d   1       1.528  -2.604  -6.985  0.00  0.00     0.265 C 
ATOM     19  H31 <0> d   1       2.471  -3.376  -8.622  0.00  0.00     0.280 HD
BRANCH  16  20
ATOM     20  C23 <0> d   1      -0.392  -0.144  -9.095  0.00  0.00     0.311 C 
BRANCH  20  21
ATOM     21  C24 <0> d   1      -0.057   1.281  -9.450  0.00  0.00    -0.027 A 
ATOM     22  C29 <0> d   1       0.576   1.564 -10.646  0.00  0.00     0.048 A 
ATOM     23  C28 <0> d   1       0.880   2.874 -10.978  0.00  0.00     0.105 A 
ATOM     24  C27 <0> d   1       0.556   3.904 -10.098  0.00  0.00     0.105 A 
ATOM     25  O5  <0> d   1       1.486   3.413 -12.075  0.00  0.00    -0.323 OA
ATOM     26  C26 <0> d   1      -0.074   3.613  -8.898  0.00  0.00     0.040 A 
ATOM     27  O6  <0> d   1       0.959   5.088 -10.645  0.00  0.00    -0.323 OA
ATOM     28  C25 <0> d   1      -0.379   2.304  -8.577  0.00  0.00     0.012 A 
ATOM     29  C30 <0> d   1       1.163   4.816 -12.044  0.00  0.00     0.352 C 
ENDBRANCH  20  21
ENDBRANCH  16  20
ENDBRANCH  12  13
ENDBRANCH   9  12
BRANCH   8  30
ATOM     30  O7  <0> d   1       4.413  -5.585  -8.634  0.00  0.00    -0.360 OA
ATOM     31  H30 <0> d   1       3.807  -5.462  -9.377  0.00  0.00     0.217 HD
ENDBRANCH   8  30
BRANCH   1  32
ATOM     32  C6  <0> d   1       1.278  -2.610  -2.227  0.00  0.00     0.003 A 
ATOM     33  C5  <0> d   1       2.054  -1.819  -3.085  0.00  0.00     0.014 A 
ATOM     34  C4  <0> d   1       1.992  -0.445  -2.997  0.00  0.00     0.004 A 
ATOM     35  C3  <0> d   1       1.166   0.161  -2.064  0.00  0.00     0.040 A 
ATOM     36  C2  <0> d   1       0.393  -0.607  -1.208  0.00  0.00     0.102 A 
ATOM     37  C7  <0> d   1       0.447  -1.994  -1.278  0.00  0.00     0.111 A 
BRANCH  36  38
ATOM     38  O1  <0> d   1      -0.415  -0.004  -0.296  0.00  0.00    -0.353 OA
ATOM     39  C1  <0> d   1      -0.420   1.425  -0.279  0.00  0.00     0.210 C 
ENDBRANCH  36  38
BRANCH  37  40
ATOM     40  O2  <0> d   1      -0.306  -2.750  -0.438  0.00  0.00    -0.352 OA
ATOM     41  C8  <0> d   1      -1.617  -3.105  -0.882  0.00  0.00     0.210 C 
ENDBRANCH  37  40
ENDBRANCH   1  32
TORSDOF 8
