REMARK  4 active torsions:
REMARK  status: ('A' for Active; 'I' for Inactive)
REMARK    1  A    between atoms: N2_5  and  C6_8 
REMARK    2  A    between atoms: C6_8  and  C7_9 
REMARK    3  A    between atoms: C8_10  and  O3_28 
REMARK    4  A    between atoms: C14_17  and  C15_18 
ROOT
ATOM      1  C7  <0> d   1       2.188  -4.533   1.006  0.00  0.00     0.038 A 
ATOM      2  C8  <0> d   1       3.528  -4.739   0.722  0.00  0.00     0.076 A 
ATOM      3  C9  <0> d   1       4.398  -5.196   1.708  0.00  0.00     0.038 A 
ATOM      4  C10 <0> d   1       3.936  -5.448   2.969  0.00  0.00     0.021 A 
ATOM      5  C11 <0> d   1       2.588  -5.245   3.268  0.00  0.00     0.051 A 
ATOM      6  C12 <0> d   1       1.702  -4.778   2.284  0.00  0.00     0.101 A 
ATOM      7  O1  <0> d   1       0.464  -4.654   2.808  0.00  0.00    -0.305 OA
ATOM      8  C13 <0> d   1       0.432  -5.004   4.115  0.00  0.00     0.128 A 
ATOM      9  C14 <0> d   1      -0.658  -4.990   4.923  0.00  0.00     0.056 C 
ATOM     10  C21 <0> d   1       1.792  -5.417   4.497  0.00  0.00     0.218 A 
ATOM     11  O2  <0> d   1       2.176  -5.801   5.587  0.00  0.00    -0.284 OA
ENDROOT
BRANCH   9  12
ATOM     12  C15 <0> d   1      -1.959  -4.563   4.393  0.00  0.00     0.010 A 
ATOM     13  C20 <0> d   1      -3.097  -5.355   4.596  0.00  0.00     0.046 A 
ATOM     14  C19 <0> d   1      -4.317  -4.943   4.099  0.00  0.00     0.025 A 
ATOM     15 Cl1  <0> d   1      -2.974  -6.846   5.476  0.00  0.00    -0.083 Cl
ATOM     16  C18 <0> d   1      -4.416  -3.757   3.392  0.00  0.00     0.003 A 
ATOM     17  C17 <0> d   1      -3.296  -2.971   3.182  0.00  0.00     0.025 A 
ATOM     18  C16 <0> d   1      -2.069  -3.364   3.676  0.00  0.00     0.046 A 
ATOM     19 Cl2  <0> d   1      -0.667  -2.376   3.412  0.00  0.00    -0.083 Cl
ENDBRANCH   9  12
BRANCH   1  20
ATOM     20  C6  <0> d   1       1.257  -4.037  -0.071  0.00  0.00     0.317 C 
BRANCH  20  21
ATOM     21  N2  <0> d   1       1.237  -2.568  -0.063  0.00  0.00     0.096 N 
ATOM     22  C3  <0> d   1       0.533  -2.045  -1.242  0.00  0.00     0.303 C 
ATOM     23  C2  <0> d   1       0.603  -0.516  -1.238  0.00  0.00     0.302 C 
ATOM     24  N1  <0> d   1       0.002  -0.004   0.002  0.00  0.00     0.087 N 
ATOM     25  C1  <0> d   1      -0.018   1.465   0.010  0.00  0.00     0.310 C 
ATOM     26  C5  <0> d   1       0.706  -0.528   1.181  0.00  0.00     0.302 C 
ATOM     27  C4  <0> d   1       0.636  -2.057   1.176  0.00  0.00     0.303 C 
ENDBRANCH  20  21
ENDBRANCH   1  20
BRANCH   2  28
ATOM     28  O3  <0> d   1       3.997  -4.492  -0.528  0.00  0.00    -0.360 OA
ATOM     29  H20 <0> d   1       4.310  -3.587  -0.659  0.00  0.00     0.217 HD
ENDBRANCH   2  28
TORSDOF 4
