REMARK  4 active torsions:
REMARK  status: ('A' for Active; 'I' for Inactive)
REMARK    1  A    between atoms: C6_6  and  C7_7 
REMARK    2  A    between atoms: C7_7  and  N1_8 
REMARK    3  A    between atoms: N2_11  and  C12_14 
REMARK    4  A    between atoms: C12_14  and  C13_15 
ROOT
ATOM      1  N1  <0> d   1       5.987  -0.944   0.994  0.00  0.00     0.096 N 
ATOM      2  C8  <0> d   1       5.681  -2.303   0.528  0.00  0.00     0.303 C 
ATOM      3  C9  <0> d   1       6.701  -2.717  -0.536  0.00  0.00     0.303 C 
ATOM      4  N2  <0> d   1       8.054  -2.651   0.034  0.00  0.00     0.096 N 
ATOM      5  C10 <0> d   1       8.360  -1.291   0.500  0.00  0.00     0.303 C 
ATOM      6  C11 <0> d   1       7.340  -0.878   1.564  0.00  0.00     0.303 C 
ENDROOT
BRANCH   4   7
ATOM      7  C12 <0> d   1       9.056  -3.113  -0.935  0.00  0.00     0.312 C 
BRANCH   7   8
ATOM      8  C13 <0> d   1       8.656  -4.467  -1.464  0.00  0.00    -0.011 A 
ATOM      9  C17 <0> d   1       8.800  -5.670  -0.639  0.00  0.00     0.007 A 
ATOM     10  C16 <0> d   1       8.410  -6.912  -1.171  0.00  0.00     0.090 A 
ATOM     11  C18 <0> d   1       9.299  -5.597   0.663  0.00  0.00     0.022 A 
ATOM     12  O2  <0> d   1       7.922  -6.981  -2.428  0.00  0.00    -0.275 OA
ATOM     13  C21 <0> d   1       8.539  -8.055  -0.395  0.00  0.00     0.046 A 
ATOM     14  C15 <0> d   1       7.792  -5.885  -3.190  0.00  0.00     0.288 A 
ATOM     15  C14 <0> d   1       8.159  -4.606  -2.719  0.00  0.00     0.092 A 
ATOM     16  O1  <0> d   1       7.345  -5.996  -4.318  0.00  0.00    -0.260 OA
ATOM     17  C20 <0> d   1       9.040  -7.972   0.891  0.00  0.00    -0.049 A 
ATOM     18  C19 <0> d   1       9.419  -6.745   1.419  0.00  0.00    -0.051 A 
ATOM     19  C22 <0> d   1       9.273  -9.060   1.918  0.00  0.00     0.039 C 
ATOM     20  C24 <0> d   1       9.929  -6.934   2.832  0.00  0.00     0.039 C 
ATOM     21  C23 <0> d   1      10.234  -8.441   2.954  0.00  0.00     0.009 C 
ENDBRANCH   7   8
ENDBRANCH   4   7
BRANCH   1  22
ATOM     22  C7  <0> d   1       4.985  -0.481   1.963  0.00  0.00     0.311 C 
BRANCH  22  23
ATOM     23  C6  <0> d   1       3.653  -0.329   1.275  0.00  0.00    -0.027 A 
ATOM     24  C1  <0> d   1       2.776  -1.396   1.225  0.00  0.00     0.012 A 
ATOM     25  C2  <0> d   1       1.553  -1.261   0.595  0.00  0.00     0.040 A 
ATOM     26  C3  <0> d   1       1.204  -0.055   0.011  0.00  0.00     0.105 A 
ATOM     27  O4  <0> d   1       0.081   0.334  -0.660  0.00  0.00    -0.323 OA
ATOM     28  C4  <0> d   1       2.088   1.021   0.060  0.00  0.00     0.105 A 
ATOM     29  C25 <0> d   1       0.114   1.774  -0.664  0.00  0.00     0.352 C 
ATOM     30  O3  <0> d   1       1.518   2.083  -0.579  0.00  0.00    -0.323 OA
ATOM     31  C5  <0> d   1       3.311   0.878   0.694  0.00  0.00     0.048 A 
ENDBRANCH  22  23
ENDBRANCH   1  22
TORSDOF 4
