REMARK  2 active torsions:
REMARK  status: ('A' for Active; 'I' for Inactive)
REMARK    1  A    between atoms: C6_6  and  C11_13 
REMARK    2  A    between atoms: C11_13  and  N1_14 
ROOT
ATOM      1  C1  <0> d   1      -0.358   1.521   0.002  0.00  0.00     0.048 C 
ATOM      2  C2  <0> d   1      -0.079   0.040  -0.021  0.00  0.00    -0.059 A 
ATOM      3  C3  <0> d   1      -0.070  -0.638  -1.232  0.00  0.00     0.014 A 
ATOM      4  C4  <0> d   1       0.181  -1.981  -1.273  0.00  0.00    -0.048 A 
ATOM      5  C5  <0> d   1       0.432  -2.676  -0.085  0.00  0.00     0.012 A 
ATOM      6  C6  <0> d   1       0.706  -4.116  -0.095  0.00  0.00    -0.011 A 
ATOM      7  C7  <0> d   1       0.942  -4.731   1.091  0.00  0.00     0.092 A 
ATOM      8  C8  <0> d   1       0.918  -3.982   2.287  0.00  0.00     0.288 A 
ATOM      9  O1  <0> d   1       1.132  -4.546   3.345  0.00  0.00    -0.260 OA
ATOM     10  O2  <0> d   1       0.667  -2.664   2.288  0.00  0.00    -0.275 OA
ATOM     11  C9  <0> d   1       0.424  -1.992   1.143  0.00  0.00     0.091 A 
ATOM     12  C10 <0> d   1       0.171  -0.626   1.160  0.00  0.00     0.045 A 
ATOM     13  C17 <0> d   1       0.188  -2.710  -2.592  0.00  0.00     0.049 C 
ENDROOT
BRANCH   6  14
ATOM     14  C11 <0> d   1       0.725  -4.892  -1.387  0.00  0.00     0.312 C 
BRANCH  14  15
ATOM     15  N1  <0> d   1      -0.646  -5.279  -1.745  0.00  0.00     0.096 N 
ATOM     16  C15 <0> d   1      -0.700  -5.827  -3.108  0.00  0.00     0.303 C 
ATOM     17  C14 <0> d   1      -2.153  -6.143  -3.471  0.00  0.00     0.302 C 
ATOM     18  N2  <0> d   1      -2.701  -7.100  -2.500  0.00  0.00     0.087 N 
ATOM     19  C13 <0> d   1      -2.647  -6.552  -1.137  0.00  0.00     0.302 C 
ATOM     20  C16 <0> d   1      -4.072  -7.487  -2.858  0.00  0.00     0.310 C 
ATOM     21  C12 <0> d   1      -1.194  -6.236  -0.774  0.00  0.00     0.303 C 
ENDBRANCH  14  15
ENDBRANCH   6  14
TORSDOF 2
