REMARK  5 active torsions:
REMARK  status: ('A' for Active; 'I' for Inactive)
REMARK    1  A    between atoms: C8_9  and  C11_14 
REMARK    2  A    between atoms: C11_14  and  N1_15 
REMARK    3  A    between atoms: N2_18  and  C16_21 
REMARK    4  A    between atoms: C16_21  and  C17_22 
REMARK    5  A    between atoms: C17_22  and  O3_23 
ROOT
ATOM      1  C1  <0> d   1       3.025   7.665   4.398  0.00  0.00     0.050 C 
ATOM      2  C2  <0> d   1       1.961   6.630   4.138  0.00  0.00    -0.038 A 
ATOM      3  C3  <0> d   1       1.784   5.594   5.029  0.00  0.00     0.046 A 
ATOM      4  C4  <0> d   1       0.806   4.636   4.795  0.00  0.00     0.090 A 
ATOM      5  C5  <0> d   1       0.002   4.736   3.646  0.00  0.00     0.008 A 
ATOM      6  C6  <0> d   1       0.192   5.792   2.751  0.00  0.00     0.039 A 
ATOM      7  C7  <0> d   1       1.169   6.731   3.002  0.00  0.00     0.041 A 
ATOM      8 Cl1  <0> d   1       1.410   8.045   1.894  0.00  0.00    -0.084 Cl
ATOM      9  C8  <0> d   1      -1.029   3.720   3.409  0.00  0.00    -0.011 A 
ATOM     10  C9  <0> d   1      -1.167   2.723   4.319  0.00  0.00     0.092 A 
ATOM     11  C10 <0> d   1      -0.322   2.683   5.450  0.00  0.00     0.288 A 
ATOM     12  O1  <0> d   1      -0.454   1.781   6.257  0.00  0.00    -0.260 OA
ATOM     13  O2  <0> d   1       0.620   3.615   5.660  0.00  0.00    -0.275 OA
ENDROOT
BRANCH   9  14
ATOM     14  C11 <0> d   1      -1.915   3.786   2.192  0.00  0.00     0.312 C 
BRANCH  14  15
ATOM     15  N1  <0> d   1      -1.189   3.256   1.030  0.00  0.00     0.096 N 
ATOM     16  C15 <0> d   1      -1.925   3.519  -0.215  0.00  0.00     0.303 C 
ATOM     17  C14 <0> d   1      -1.102   3.023  -1.406  0.00  0.00     0.302 C 
ATOM     18  N2  <0> d   1      -0.834   1.587  -1.249  0.00  0.00     0.093 N 
ATOM     19  C13 <0> d   1      -0.098   1.324  -0.005  0.00  0.00     0.302 C 
ATOM     20  C12 <0> d   1      -0.921   1.819   1.187  0.00  0.00     0.303 C 
BRANCH  18  21
ATOM     21  C16 <0> d   1      -0.109   1.057  -2.412  0.00  0.00     0.298 C 
BRANCH  21  22
ATOM     22  C17 <0> d   1      -0.268  -0.464  -2.462  0.00  0.00     0.194 C 
BRANCH  22  23
ATOM     23  O3  <0> d   1      -1.641  -0.792  -2.682  0.00  0.00    -0.399 OA
ATOM     24  H21 <0> d   1      -1.951  -1.846  -2.748  0.00  0.00     0.209 HD
ENDBRANCH  22  23
ENDBRANCH  21  22
ENDBRANCH  18  21
ENDBRANCH  14  15
ENDBRANCH   9  14
TORSDOF 5
