REMARK  8 active torsions:
REMARK  status: ('A' for Active; 'I' for Inactive)
REMARK    1  A    between atoms: C3_3  and  C19_25 
REMARK    2  A    between atoms: C4_4  and  C5_8 
REMARK    3  A    between atoms: C8_11  and  O2_15 
REMARK    4  A    between atoms: C10_13  and  O1_14 
REMARK    5  A    between atoms: O2_15  and  C11_16 
REMARK    6  A    between atoms: C11_16  and  C12_17 
REMARK    7  A    between atoms: C12_17  and  N3_34 
REMARK    8  A    between atoms: C22_28  and  O4_31 
ROOT
ATOM      1  C5  <0> d   1       1.669   1.251   6.997  0.00  0.00     0.026 A 
ATOM      2  C6  <0> d   1       0.548   0.474   6.710  0.00  0.00     0.019 A 
ATOM      3  C7  <0> d   1      -0.286   0.825   5.670  0.00  0.00     0.038 A 
ATOM      4  C8  <0> d   1      -0.014   1.953   4.907  0.00  0.00     0.071 A 
ATOM      5  C9  <0> d   1       1.102   2.729   5.182  0.00  0.00     0.074 A 
ATOM      6  C10 <0> d   1       1.943   2.387   6.228  0.00  0.00     0.081 A 
ENDROOT
BRANCH   1   7
ATOM      7  C4  <0> d   1       2.568   0.876   8.114  0.00  0.00     0.076 A 
ATOM      8  C3  <0> d   1       2.166   0.506   9.422  0.00  0.00     0.029 A 
ATOM      9  C2  <0> d   1       3.294   0.238  10.138  0.00  0.00     0.064 A 
ATOM     10  C1  <0> d   1       3.349  -0.194  11.580  0.00  0.00     0.073 C 
ATOM     11  N2  <0> d   1       4.354   0.428   9.325  0.00  0.00    -0.178 NA
ATOM     12  N1  <0> d   1       3.882   0.821   8.066  0.00  0.00    -0.276 N 
ATOM     13  H1  <0> d   1       4.447   1.025   7.267  0.00  0.00     0.189 HD
BRANCH   8  14
ATOM     14  C19 <0> d   1       0.771   0.425   9.921  0.00  0.00    -0.021 A 
ATOM     15  C24 <0> d   1       0.226  -0.807  10.276  0.00  0.00     0.015 A 
ATOM     16  C23 <0> d   1      -1.071  -0.879  10.739  0.00  0.00     0.037 A 
ATOM     17  C22 <0> d   1      -1.834   0.275  10.852  0.00  0.00     0.068 A 
ATOM     18  C21 <0> d   1      -1.295   1.504  10.499  0.00  0.00     0.037 A 
ATOM     19  C20 <0> d   1       0.004   1.583  10.041  0.00  0.00     0.015 A 
BRANCH  17  20
ATOM     20  O4  <0> d   1      -3.112   0.201  11.309  0.00  0.00    -0.356 OA
ATOM     21  C25 <0> d   1      -3.841   1.427  11.400  0.00  0.00     0.210 C 
ENDBRANCH  17  20
ENDBRANCH   8  14
ENDBRANCH   1   7
BRANCH   6  22
ATOM     22  O1  <0> d   1       3.033   3.149   6.502  0.00  0.00    -0.360 OA
ATOM     23  H10 <0> d   1       3.832   2.878   6.028  0.00  0.00     0.217 HD
ENDBRANCH   6  22
BRANCH   4  24
ATOM     24  O2  <0> d   1      -0.841   2.294   3.884  0.00  0.00    -0.349 OA
BRANCH  24  25
ATOM     25  C11 <0> d   1      -1.968   1.447   3.651  0.00  0.00     0.203 C 
BRANCH  25  26
ATOM     26  C12 <0> d   1      -2.775   1.987   2.468  0.00  0.00     0.261 C 
BRANCH  26  27
ATOM     27  N3  <0> d   1      -1.993   1.878   1.217  0.00  0.00    -0.064 N 
ATOM     28  C13 <0> d   1      -0.940   2.915   1.188  0.00  0.00     0.266 C 
ATOM     29  C14 <0> d   1      -0.174   2.799  -0.132  0.00  0.00     0.143 C 
ATOM     30  O3  <0> d   1       0.373   1.482  -0.246  0.00  0.00    -0.378 OA
ATOM     31  C18 <0> d   1       0.959   3.827  -0.158  0.00  0.00     0.041 C 
ATOM     32  C15 <0> d   1      -0.610   0.445  -0.200  0.00  0.00     0.143 C 
ATOM     33  C16 <0> d   1      -1.381   0.536   1.119  0.00  0.00     0.266 C 
ATOM     34  C17 <0> d   1       0.080  -0.917  -0.296  0.00  0.00     0.041 C 
ATOM     35  H32 <0> d   1      -2.622   2.018   0.418  0.00  0.00     0.280 HD
ENDBRANCH  26  27
ENDBRANCH  25  26
ENDBRANCH  24  25
ENDBRANCH   4  24
TORSDOF 8
