REMARK  3 active torsions:
REMARK  status: ('A' for Active; 'I' for Inactive)
REMARK    1  A    between atoms: C2_2  and  N1_3 
REMARK    2  A    between atoms: N2_6  and  C7_9 
REMARK    3  A    between atoms: C7_9  and  C8_10 
ROOT
ATOM      1  C8  <0> d   1      -1.263   5.086  -2.464  0.00  0.00    -0.011 A 
ATOM      2  C9  <0> d   1      -2.264   5.923  -2.091  0.00  0.00     0.092 A 
ATOM      3  C10 <0> d   1      -2.066   7.320  -2.143  0.00  0.00     0.288 A 
ATOM      4  O1  <0> d   1      -2.970   8.060  -1.799  0.00  0.00    -0.260 OA
ATOM      5  O2  <0> d   1      -0.910   7.853  -2.565  0.00  0.00    -0.275 OA
ATOM      6  C11 <0> d   1       0.123   7.077  -2.956  0.00  0.00     0.090 A 
ATOM      7  C12 <0> d   1      -0.003   5.676  -2.925  0.00  0.00     0.007 A 
ATOM      8  C13 <0> d   1       1.066   4.871  -3.330  0.00  0.00     0.022 A 
ATOM      9  C14 <0> d   1       2.229   5.450  -3.755  0.00  0.00    -0.055 A 
ATOM     10  C15 <0> d   1       2.356   6.831  -3.787  0.00  0.00    -0.053 A 
ATOM     11  C16 <0> d   1       1.314   7.644  -3.392  0.00  0.00     0.045 A 
ATOM     12  C17 <0> d   1       3.647   7.450  -4.258  0.00  0.00     0.049 C 
ATOM     13  C18 <0> d   1       3.381   4.582  -4.192  0.00  0.00     0.049 C 
ENDROOT
BRANCH   1  14
ATOM     14  C7  <0> d   1      -1.445   3.591  -2.413  0.00  0.00     0.312 C 
BRANCH  14  15
ATOM     15  N2  <0> d   1      -0.806   3.062  -1.200  0.00  0.00     0.096 N 
ATOM     16  C4  <0> d   1      -0.754   1.593  -1.231  0.00  0.00     0.303 C 
ATOM     17  C3  <0> d   1      -0.013   1.086   0.008  0.00  0.00     0.302 C 
ATOM     18  N1  <0> d   1      -0.701   1.560   1.216  0.00  0.00     0.091 N 
ATOM     19  C6  <0> d   1      -0.754   3.029   1.247  0.00  0.00     0.302 C 
ATOM     20  C5  <0> d   1      -1.495   3.536   0.008  0.00  0.00     0.303 C 
BRANCH  18  21
ATOM     21  C2  <0> d   1      -0.062   1.031   2.429  0.00  0.00     0.268 C 
ATOM     22  C1  <0> d   1      -0.640   1.734   3.658  0.00  0.00     0.037 C 
ENDBRANCH  18  21
ENDBRANCH  14  15
ENDBRANCH   1  14
TORSDOF 3
