REMARK  8 active torsions:
REMARK  status: ('A' for Active; 'I' for Inactive)
REMARK    1  A    between atoms: C3_3  and  C19_26 
REMARK    2  A    between atoms: C4_4  and  C5_8 
REMARK    3  A    between atoms: C8_11  and  O2_15 
REMARK    4  A    between atoms: O2_15  and  C11_16 
REMARK    5  A    between atoms: C11_16  and  C12_17 
REMARK    6  A    between atoms: C12_17  and  N3_18 
REMARK    7  A    between atoms: C22_29  and  O5_34 
REMARK    8  A    between atoms: C23_30  and  O4_32 
ROOT
ATOM      1  C5  <0> d   1       0.158  -2.342   2.496  0.00  0.00     0.032 A 
ATOM      2  C6  <0> d   1      -0.203  -2.264   3.840  0.00  0.00     0.019 A 
ATOM      3  C7  <0> d   1      -0.368  -3.417   4.578  0.00  0.00     0.038 A 
ATOM      4  C8  <0> d   1      -0.174  -4.659   3.986  0.00  0.00     0.071 A 
ATOM      5  C9  <0> d   1       0.185  -4.745   2.649  0.00  0.00     0.077 A 
ATOM      6  C10 <0> d   1       0.347  -3.593   1.899  0.00  0.00     0.122 A 
ATOM      7  O1  <0> d   1       0.694  -3.676   0.588  0.00  0.00    -0.191 OA
ENDROOT
BRANCH   1   8
ATOM      8  C4  <0> d   1       0.334  -1.104   1.700  0.00  0.00     0.103 A 
ATOM      9  C3  <0> d   1       1.056   0.049   2.099  0.00  0.00     0.029 A 
ATOM     10  C2  <0> d   1       0.975   0.955   1.084  0.00  0.00     0.037 A 
ATOM     11  C1  <0> d   1       1.594   2.328   1.068  0.00  0.00     0.070 C 
ATOM     12  N2  <0> d   1       0.236   0.405   0.098  0.00  0.00    -0.281 N 
ATOM     13  N1  <0> d   1      -0.150  -0.880   0.498  0.00  0.00    -0.173 NA
ATOM     14  H1  <0> d   1       0.011   0.828  -0.746  0.00  0.00     0.189 HD
BRANCH   9  15
ATOM     15  C19 <0> d   1       1.770   0.236   3.386  0.00  0.00    -0.019 A 
ATOM     16  C24 <0> d   1       1.310   1.172   4.310  0.00  0.00     0.052 A 
ATOM     17  C23 <0> d   1       1.975   1.339   5.512  0.00  0.00     0.102 A 
ATOM     18  C22 <0> d   1       3.108   0.580   5.791  0.00  0.00     0.101 A 
ATOM     19  C21 <0> d   1       3.568  -0.347   4.869  0.00  0.00     0.040 A 
ATOM     20  C20 <0> d   1       2.905  -0.521   3.671  0.00  0.00     0.015 A 
BRANCH  17  21
ATOM     21  O4  <0> d   1       1.525   2.248   6.418  0.00  0.00    -0.353 OA
ATOM     22  C25 <0> d   1       0.356   2.992   6.065  0.00  0.00     0.210 C 
ENDBRANCH  17  21
BRANCH  18  23
ATOM     23  O5  <0> d   1       3.764   0.748   6.971  0.00  0.00    -0.353 OA
ATOM     24  C26 <0> d   1       4.919  -0.064   7.192  0.00  0.00     0.210 C 
ENDBRANCH  18  23
ENDBRANCH   9  15
ENDBRANCH   1   8
BRANCH   4  25
ATOM     25  O2  <0> d   1      -0.337  -5.791   4.718  0.00  0.00    -0.349 OA
BRANCH  25  26
ATOM     26  C11 <0> d   1      -0.122  -7.034   4.047  0.00  0.00     0.206 C 
BRANCH  26  27
ATOM     27  C12 <0> d   1      -0.350  -8.188   5.026  0.00  0.00     0.299 C 
BRANCH  27  28
ATOM     28  N3  <0> d   1      -1.758  -8.204   5.446  0.00  0.00     0.095 N 
ATOM     29  C16 <0> d   1      -2.618  -8.747   4.385  0.00  0.00     0.303 C 
ATOM     30  C15 <0> d   1      -4.079  -8.689   4.840  0.00  0.00     0.146 C 
ATOM     31  O3  <0> d   1      -4.218  -9.405   6.070  0.00  0.00    -0.378 OA
ATOM     32  C17 <0> d   1      -4.973  -9.326   3.774  0.00  0.00     0.041 C 
ATOM     33  C14 <0> d   1      -3.395  -8.902   7.125  0.00  0.00     0.146 C 
ATOM     34  C13 <0> d   1      -1.927  -8.962   6.694  0.00  0.00     0.303 C 
ATOM     35  C18 <0> d   1      -3.780  -7.452   7.428  0.00  0.00     0.041 C 
ENDBRANCH  27  28
ENDBRANCH  26  27
ENDBRANCH  25  26
ENDBRANCH   4  25
TORSDOF 8
