REMARK  9 active torsions:
REMARK  status: ('A' for Active; 'I' for Inactive)
REMARK    1  A    between atoms: C2_2  and  C3_3 
REMARK    2  A    between atoms: C3_3  and  N1_4 
REMARK    3  A    between atoms: N1_4  and  C4_5 
REMARK    4  A    between atoms: N1_4  and  C7_8 
REMARK    5  A    between atoms: C4_5  and  C5_6 
REMARK    6  A    between atoms: C7_8  and  C8_9 
REMARK    7  A    between atoms: C9_10  and  O3_31 
REMARK    8  A    between atoms: C15_17  and  C16_18 
REMARK    9  A    between atoms: N2_20  and  C24_27 
ROOT
ATOM      1  C8  <0> d   1      -1.899  -3.281  -0.013  0.00  0.00     0.036 A 
ATOM      2  C9  <0> d   1      -2.819  -4.316  -0.062  0.00  0.00     0.076 A 
ATOM      3  C10 <0> d   1      -4.185  -4.050  -0.035  0.00  0.00     0.038 A 
ATOM      4  C11 <0> d   1      -4.634  -2.762   0.040  0.00  0.00     0.021 A 
ATOM      5  C12 <0> d   1      -3.720  -1.710   0.090  0.00  0.00     0.051 A 
ATOM      6  C13 <0> d   1      -2.339  -1.967   0.064  0.00  0.00     0.101 A 
ATOM      7  O1  <0> d   1      -1.677  -0.791   0.122  0.00  0.00    -0.305 OA
ATOM      8  C14 <0> d   1      -2.533   0.256   0.187  0.00  0.00     0.128 A 
ATOM      9  C15 <0> d   1      -2.179   1.570   0.257  0.00  0.00     0.055 C 
ATOM     10  C26 <0> d   1      -3.862  -0.246   0.176  0.00  0.00     0.218 A 
ATOM     11  O2  <0> d   1      -4.897   0.397   0.226  0.00  0.00    -0.284 OA
ENDROOT
BRANCH   9  12
ATOM     12  C16 <0> d   1      -0.767   1.947   0.266  0.00  0.00    -0.005 A 
ATOM     13  C19 <0> d   1      -0.217   3.314   0.340  0.00  0.00     0.002 A 
ATOM     14  C18 <0> d   1       1.180   3.171   0.313  0.00  0.00     0.045 A 
ATOM     15  C20 <0> d   1      -0.787   4.582   0.418  0.00  0.00     0.014 A 
ATOM     16  N2  <0> d   1       1.462   1.822   0.234  0.00  0.00    -0.356 N 
ATOM     17  C23 <0> d   1       1.982   4.306   0.366  0.00  0.00     0.030 A 
ATOM     18  C17 <0> d   1       0.316   1.097   0.209  0.00  0.00     0.103 A 
ATOM     19  C22 <0> d   1       1.404   5.554   0.444  0.00  0.00     0.002 A 
ATOM     20  C21 <0> d   1       0.025   5.694   0.470  0.00  0.00     0.001 A 
BRANCH  16  21
ATOM     21  C24 <0> d   1       2.811   1.253   0.184  0.00  0.00     0.124 C 
ATOM     22  C25 <0> d   1       3.348   1.090   1.607  0.00  0.00     0.027 C 
ENDBRANCH  16  21
ENDBRANCH   9  12
BRANCH   1  23
ATOM     23  C7  <0> d   1      -0.422  -3.581  -0.042  0.00  0.00     0.279 C 
BRANCH  23  24
ATOM     24  N1  <0> d   1       0.106  -3.571   1.329  0.00  0.00    -0.067 N 
ATOM     25  H30 <0> d   1      -0.337  -2.714   1.856  0.00  0.00     0.280 HD
BRANCH  24  26
ATOM     26  C3  <0> d   1      -0.278  -4.792   2.050  0.00  0.00     0.234 C 
BRANCH  26  27
ATOM     27  C2  <0> d   1       0.376  -6.005   1.385  0.00  0.00     0.023 C 
ATOM     28  C1  <0> d   1      -0.113  -7.285   2.065  0.00  0.00     0.007 C 
ENDBRANCH  26  27
ENDBRANCH  24  26
BRANCH  24  29
ATOM     29  C4  <0> d   1       1.565  -3.397   1.329  0.00  0.00     0.234 C 
BRANCH  29  30
ATOM     30  C5  <0> d   1       2.033  -3.024   2.737  0.00  0.00     0.023 C 
ATOM     31  C6  <0> d   1       3.532  -2.716   2.711  0.00  0.00     0.007 C 
ENDBRANCH  29  30
ENDBRANCH  24  29
ENDBRANCH  23  24
ENDBRANCH   1  23
BRANCH   2  32
ATOM     32  O3  <0> d   1      -2.384  -5.600  -0.136  0.00  0.00    -0.360 OA
ATOM     33  H31 <0> d   1      -3.110  -6.425  -0.175  0.00  0.00     0.217 HD
ENDBRANCH   2  32
TORSDOF 9
