REMARK  7 active torsions:
REMARK  status: ('A' for Active; 'I' for Inactive)
REMARK    1  A    between atoms: C2_2  and  N1_3 
REMARK    2  A    between atoms: C4_5  and  C11_12 
REMARK    3  A    between atoms: C17_19  and  O3_29 
REMARK    4  A    between atoms: C18_20  and  C20_23 
REMARK    5  A    between atoms: C20_23  and  N2_24 
REMARK    6  A    between atoms: N2_24  and  C21_25 
REMARK    7  A    between atoms: N2_24  and  C23_27 
ROOT
ATOM      1  C11 <0> d   1      -2.322   1.517   0.104  0.00  0.00     0.055 C 
ATOM      2  C12 <0> d   1      -2.663   0.198   0.082  0.00  0.00     0.128 A 
ATOM      3  C13 <0> d   1      -3.986  -0.317   0.117  0.00  0.00     0.218 A 
ATOM      4  O1  <0> d   1      -5.027   0.316   0.172  0.00  0.00    -0.284 OA
ATOM      5  C14 <0> d   1      -3.831  -1.782   0.069  0.00  0.00     0.051 A 
ATOM      6  C15 <0> d   1      -4.735  -2.844   0.071  0.00  0.00     0.021 A 
ATOM      7  C16 <0> d   1      -4.274  -4.129   0.024  0.00  0.00     0.038 A 
ATOM      8  C17 <0> d   1      -2.905  -4.382  -0.026  0.00  0.00     0.076 A 
ATOM      9  C18 <0> d   1      -1.996  -3.337  -0.028  0.00  0.00     0.036 A 
ATOM     10  C19 <0> d   1      -2.448  -2.025   0.019  0.00  0.00     0.101 A 
ATOM     11  O2  <0> d   1      -1.798  -0.842   0.028  0.00  0.00    -0.305 OA
ENDROOT
BRANCH   1  12
ATOM     12  C4  <0> d   1      -0.914   1.909   0.070  0.00  0.00    -0.005 A 
ATOM     13  C3  <0> d   1       0.177   1.068   0.013  0.00  0.00     0.103 A 
ATOM     14  N1  <0> d   1       1.315   1.805  -0.010  0.00  0.00    -0.356 N 
ATOM     15  C6  <0> d   1       1.021   3.152   0.036  0.00  0.00     0.045 A 
ATOM     16  C5  <0> d   1      -0.376   3.283   0.091  0.00  0.00     0.002 A 
ATOM     17  C7  <0> d   1       1.812   4.296   0.036  0.00  0.00     0.030 A 
ATOM     18  C10 <0> d   1      -0.959   4.546   0.144  0.00  0.00     0.014 A 
ATOM     19  C9  <0> d   1      -0.157   5.667   0.143  0.00  0.00     0.001 A 
ATOM     20  C8  <0> d   1       1.223   5.541   0.090  0.00  0.00     0.002 A 
BRANCH  14  21
ATOM     21  C2  <0> d   1       2.668   1.248  -0.073  0.00  0.00     0.124 C 
ATOM     22  C1  <0> d   1       3.240   1.133   1.342  0.00  0.00     0.027 C 
ENDBRANCH  14  21
ENDBRANCH   1  12
BRANCH   9  23
ATOM     23  C20 <0> d   1      -0.517  -3.623  -0.082  0.00  0.00     0.279 C 
BRANCH  23  24
ATOM     24  N2  <0> d   1       0.040  -3.575   1.277  0.00  0.00    -0.068 N 
ATOM     25  H26 <0> d   1      -0.402  -2.710   1.793  0.00  0.00     0.280 HD
BRANCH  24  26
ATOM     26  C21 <0> d   1      -0.315  -4.783   2.034  0.00  0.00     0.231 C 
ATOM     27  C22 <0> d   1       0.348  -6.002   1.391  0.00  0.00     0.034 C 
ENDBRANCH  24  26
BRANCH  24  28
ATOM     28  C23 <0> d   1       1.496  -3.385   1.242  0.00  0.00     0.231 C 
ATOM     29  C24 <0> d   1       1.990  -2.970   2.629  0.00  0.00     0.034 C 
ENDBRANCH  24  28
ENDBRANCH  23  24
ENDBRANCH   9  23
BRANCH   8  30
ATOM     30  O3  <0> d   1      -2.458  -5.663  -0.072  0.00  0.00    -0.360 OA
ATOM     31  H27 <0> d   1      -1.379  -5.868  -0.112  0.00  0.00     0.217 HD
ENDBRANCH   8  30
TORSDOF 7
