REMARK  5 active torsions:
REMARK  status: ('A' for Active; 'I' for Inactive)
REMARK    1  A    between atoms: C2_2  and  N1_3 
REMARK    2  A    between atoms: N2_6  and  C7_9 
REMARK    3  A    between atoms: C7_9  and  C8_10 
REMARK    4  A    between atoms: C9_11  and  O4_31 
REMARK    5  A    between atoms: C15_18  and  C16_19 
ROOT
ATOM      1  C8  <0> d   1      -4.931  -4.100  -0.816  0.00  0.00     0.036 A 
ATOM      2  C9  <0> d   1      -4.954  -4.860  -1.974  0.00  0.00     0.076 A 
ATOM      3  C10 <0> d   1      -4.965  -6.251  -1.908  0.00  0.00     0.038 A 
ATOM      4  C11 <0> d   1      -4.953  -6.881  -0.695  0.00  0.00     0.021 A 
ATOM      5  C12 <0> d   1      -4.930  -6.128   0.479  0.00  0.00     0.051 A 
ATOM      6  C13 <0> d   1      -4.913  -4.725   0.425  0.00  0.00     0.101 A 
ATOM      7  O1  <0> d   1      -4.885  -4.222   1.679  0.00  0.00    -0.305 OA
ATOM      8  C14 <0> d   1      -4.876  -5.201   2.613  0.00  0.00     0.129 A 
ATOM      9  C15 <0> d   1      -4.849  -5.024   3.963  0.00  0.00     0.078 C 
ATOM     10  C24 <0> d   1      -4.914  -6.489   1.908  0.00  0.00     0.218 A 
ATOM     11  O3  <0> d   1      -4.917  -7.606   2.396  0.00  0.00    -0.284 OA
ENDROOT
BRANCH   9  12
ATOM     12  C16 <0> d   1      -4.827  -3.717   4.505  0.00  0.00     0.079 A 
ATOM     13  O2  <0> d   1      -4.829  -2.573   3.786  0.00  0.00    -0.310 OA
ATOM     14  C23 <0> d   1      -4.806  -1.510   4.616  0.00  0.00     0.086 A 
ATOM     15  C18 <0> d   1      -4.779  -2.001   5.935  0.00  0.00     0.002 A 
ATOM     16  C22 <0> d   1      -4.801  -0.138   4.401  0.00  0.00     0.039 A 
ATOM     17  C17 <0> d   1      -4.793  -3.415   5.835  0.00  0.00     0.051 A 
ATOM     18  C19 <0> d   1      -4.748  -1.107   7.011  0.00  0.00     0.033 A 
ATOM     19  C20 <0> d   1      -4.743   0.239   6.776  0.00  0.00     0.011 A 
ATOM     20  C21 <0> d   1      -4.769   0.726   5.475  0.00  0.00     0.022 A 
ATOM     21 Br1  <0> d   1      -4.700   1.446   8.230  0.00  0.00    -0.051 Br
ENDBRANCH   9  12
BRANCH   1  22
ATOM     22  C7  <0> d   1      -4.919  -2.596  -0.902  0.00  0.00     0.279 C 
BRANCH  22  23
ATOM     23  N2  <0> d   1      -3.530  -2.119  -0.956  0.00  0.00    -0.064 N 
ATOM     24  C4  <0> d   1      -3.519  -0.665  -1.160  0.00  0.00     0.265 C 
ATOM     25  C3  <0> d   1      -2.073  -0.171  -1.236  0.00  0.00     0.300 C 
ATOM     26  N1  <0> d   1      -1.376  -0.512   0.012  0.00  0.00     0.091 N 
ATOM     27  C6  <0> d   1      -1.400  -1.964   0.243  0.00  0.00     0.300 C 
ATOM     28  C5  <0> d   1      -2.852  -2.443   0.306  0.00  0.00     0.265 C 
ATOM     29  H24 <0> d   1      -3.050  -2.570  -1.721  0.00  0.00     0.280 HD
BRANCH  26  30
ATOM     30  C2  <0> d   1       0.002  -0.004   0.002  0.00  0.00     0.268 C 
ATOM     31  C1  <0> d   1      -0.019   1.526   0.010  0.00  0.00     0.037 C 
ENDBRANCH  26  30
ENDBRANCH  22  23
ENDBRANCH   1  22
BRANCH   2  32
ATOM     32  O4  <0> d   1      -4.966  -4.244  -3.183  0.00  0.00    -0.360 OA
ATOM     33  H23 <0> d   1      -4.086  -4.073  -3.546  0.00  0.00     0.217 HD
ENDBRANCH   2  32
TORSDOF 5
