REMARK  5 active torsions:
REMARK  status: ('A' for Active; 'I' for Inactive)
REMARK    1  A    between atoms: O1_2  and  C2_3 
REMARK    2  A    between atoms: C5_6  and  O2_9 
REMARK    3  A    between atoms: O2_9  and  C8_10 
REMARK    4  A    between atoms: C16_20  and  C17_21 
REMARK    5  A    between atoms: C17_21  and  N1_22 
ROOT
ATOM      1  C8  <0> d   1      -2.456   5.287   0.362  0.00  0.00     0.149 A 
ATOM      2  C9  <0> d   1      -1.301   5.855   0.761  0.00  0.00     0.184 A 
ATOM      3  O3  <0> d   1      -0.208   5.141   1.062  0.00  0.00    -0.318 OA
ATOM      4  C10 <0> d   1      -0.181   3.795   0.988  0.00  0.00     0.100 A 
ATOM      5  C11 <0> d   1      -1.332   3.095   0.582  0.00  0.00     0.051 A 
ATOM      6  C12 <0> d   1      -2.539   3.870   0.249  0.00  0.00     0.220 A 
ATOM      7  O4  <0> d   1      -3.568   3.321  -0.110  0.00  0.00    -0.284 OA
ATOM      8  C13 <0> d   1      -1.315   1.703   0.496  0.00  0.00     0.021 A 
ATOM      9  C14 <0> d   1      -0.178   1.018   0.819  0.00  0.00     0.041 A 
ATOM     10  C15 <0> d   1       0.966   1.703   1.223  0.00  0.00     0.118 A 
ATOM     11  C16 <0> d   1       0.967   3.085   1.308  0.00  0.00     0.039 A 
ATOM     12  O5  <0> d   1       2.090   1.009   1.535  0.00  0.00    -0.191 OA
ENDROOT
BRANCH   1  13
ATOM     13  O2  <0> d   1      -3.535   6.063   0.070  0.00  0.00    -0.305 OA
BRANCH  13  14
ATOM     14  C5  <0> d   1      -3.402   7.411   0.181  0.00  0.00     0.076 A 
ATOM     15  C4  <0> d   1      -2.980   8.158  -0.909  0.00  0.00     0.040 A 
ATOM     16  C3  <0> d   1      -2.844   9.528  -0.797  0.00  0.00     0.039 A 
ATOM     17  C2  <0> d   1      -3.130  10.157   0.406  0.00  0.00     0.068 A 
ATOM     18  C7  <0> d   1      -3.552   9.410   1.496  0.00  0.00     0.039 A 
ATOM     19  C6  <0> d   1      -3.692   8.041   1.382  0.00  0.00     0.040 A 
BRANCH  17  20
ATOM     20  O1  <0> d   1      -2.997  11.506   0.517  0.00  0.00    -0.356 OA
ATOM     21  C1  <0> d   1      -3.309  12.086   1.785  0.00  0.00     0.210 C 
ENDBRANCH  17  20
ENDBRANCH  13  14
ENDBRANCH   1  13
BRANCH  11  22
ATOM     22  C17 <0> d   1       2.211   3.815   1.745  0.00  0.00     0.279 C 
BRANCH  22  23
ATOM     23  N1  <0> d   1       3.032   4.133   0.569  0.00  0.00    -0.067 N 
ATOM     24  C22 <0> d   1       4.127   5.045   0.922  0.00  0.00     0.235 C 
ATOM     25  C21 <0> d   1       4.870   5.468  -0.347  0.00  0.00     0.028 C 
ATOM     26  C20 <0> d   1       5.423   4.224  -1.047  0.00  0.00     0.003 C 
ATOM     27  C19 <0> d   1       4.268   3.269  -1.361  0.00  0.00     0.028 C 
ATOM     28  C18 <0> d   1       3.542   2.909  -0.062  0.00  0.00     0.235 C 
ATOM     29  H23 <0> d   1       2.391   4.646  -0.164  0.00  0.00     0.280 HD
ENDBRANCH  22  23
ENDBRANCH  11  22
TORSDOF 5
