REMARK  5 active torsions:
REMARK  status: ('A' for Active; 'I' for Inactive)
REMARK    1  A    between atoms: C4_4  and  O4_29 
REMARK    2  A    between atoms: C5_5  and  C18_21 
REMARK    3  A    between atoms: C10_11  and  C11_12 
REMARK    4  A    between atoms: C16_17  and  O2_18 
REMARK    5  A    between atoms: C18_21  and  N1_22 
ROOT
ATOM      1  C1  <0> d   1      -0.698   1.601   0.141  0.00  0.00     0.049 C 
ATOM      2  C2  <0> d   1      -0.774   0.096   0.115  0.00  0.00    -0.042 A 
ATOM      3  C3  <0> d   1      -1.035  -0.556  -1.058  0.00  0.00     0.045 A 
ATOM      4  C4  <0> d   1      -1.106  -1.946  -1.084  0.00  0.00     0.077 A 
ATOM      5  C5  <0> d   1      -0.914  -2.684   0.073  0.00  0.00     0.038 A 
ATOM      6  C6  <0> d   1      -0.648  -2.037   1.273  0.00  0.00     0.102 A 
ATOM      7  C7  <0> d   1      -0.573  -0.634   1.286  0.00  0.00     0.057 A 
ATOM      8  C8  <0> d   1      -0.275  -0.247   2.677  0.00  0.00     0.219 A 
ATOM      9  O1  <0> d   1      -0.132   0.878   3.124  0.00  0.00    -0.284 OA
ATOM     10  C9  <0> d   1      -0.189  -1.522   3.404  0.00  0.00     0.128 A 
ATOM     11  C10 <0> d   1       0.070  -1.674   4.729  0.00  0.00     0.055 C 
ATOM     12  O3  <0> d   1      -0.428  -2.516   2.517  0.00  0.00    -0.305 OA
ENDROOT
BRANCH  11  13
ATOM     13  C11 <0> d   1      -0.017  -3.002   5.345  0.00  0.00    -0.000 A 
ATOM     14  C16 <0> d   1      -0.102  -3.130   6.742  0.00  0.00     0.078 A 
ATOM     15  C15 <0> d   1      -0.190  -4.390   7.312  0.00  0.00     0.037 A 
ATOM     16  C14 <0> d   1      -0.181  -5.515   6.511  0.00  0.00     0.003 A 
ATOM     17  C13 <0> d   1      -0.092  -5.396   5.133  0.00  0.00     0.001 A 
ATOM     18  C12 <0> d   1      -0.010  -4.152   4.546  0.00  0.00     0.014 A 
BRANCH  14  19
ATOM     19  O2  <0> d   1      -0.105  -2.024   7.528  0.00  0.00    -0.355 OA
ATOM     20  C17 <0> d   1      -0.194  -2.232   8.939  0.00  0.00     0.210 C 
ENDBRANCH  14  19
ENDBRANCH  11  13
BRANCH   5  21
ATOM     21  C18 <0> d   1      -0.995  -4.188   0.030  0.00  0.00     0.317 C 
BRANCH  21  22
ATOM     22  N1  <0> d   1       0.336  -4.742  -0.251  0.00  0.00     0.096 N 
ATOM     23  C22 <0> d   1       0.259  -6.182  -0.535  0.00  0.00     0.303 C 
ATOM     24  C21 <0> d   1       1.651  -6.703  -0.898  0.00  0.00     0.302 C 
ATOM     25  N2  <0> d   1       2.576  -6.438   0.212  0.00  0.00     0.087 N 
ATOM     26  C20 <0> d   1       2.654  -4.998   0.496  0.00  0.00     0.302 C 
ATOM     27  C23 <0> d   1       3.907  -6.992  -0.068  0.00  0.00     0.310 C 
ATOM     28  C19 <0> d   1       1.262  -4.477   0.860  0.00  0.00     0.303 C 
ENDBRANCH  21  22
ENDBRANCH   5  21
BRANCH   4  29
ATOM     29  O4  <0> d   1      -1.365  -2.584  -2.254  0.00  0.00    -0.360 OA
ATOM     30  H26 <0> d   1      -0.574  -2.810  -2.762  0.00  0.00     0.217 HD
ENDBRANCH   4  29
TORSDOF 5
