REMARK  7 active torsions:
REMARK  status: ('A' for Active; 'I' for Inactive)
REMARK    1  A    between atoms: C3_3  and  C15_20 
REMARK    2  A    between atoms: C4_4  and  C5_8 
REMARK    3  A    between atoms: C8_11  and  O2_15 
REMARK    4  A    between atoms: C10_13  and  O1_14 
REMARK    5  A    between atoms: O2_15  and  C11_16 
REMARK    6  A    between atoms: C11_16  and  C12_17 
REMARK    7  A    between atoms: C18_23  and  O3_26 
ROOT
ATOM      1  C1  <0> d   1      -0.241   1.490   0.004  0.00  0.00     0.070 C 
ATOM      2  C2  <0> d   1      -0.093  -0.009  -0.001  0.00  0.00     0.037 A 
ATOM      3  C3  <0> d   1       0.060  -0.797  -1.102  0.00  0.00     0.029 A 
ATOM      4  C4  <0> d   1       0.161  -2.139  -0.655  0.00  0.00     0.103 A 
ATOM      5  N1  <0> d   1       0.070  -2.134   0.657  0.00  0.00    -0.173 NA
ATOM      6  N2  <0> d   1      -0.084  -0.810   1.085  0.00  0.00    -0.281 N 
ATOM      7  H1  <0> d   1      -0.171  -0.519   2.006  0.00  0.00     0.189 HD
ENDROOT
BRANCH   4   8
ATOM      8  C5  <0> d   1       0.338  -3.334  -1.514  0.00  0.00     0.029 A 
ATOM      9  C10 <0> d   1      -0.459  -4.466  -1.314  0.00  0.00     0.081 A 
ATOM     10  C9  <0> d   1      -0.292  -5.577  -2.123  0.00  0.00     0.074 A 
ATOM     11  C8  <0> d   1       0.670  -5.570  -3.122  0.00  0.00     0.071 A 
ATOM     12  C7  <0> d   1       1.465  -4.448  -3.318  0.00  0.00     0.038 A 
ATOM     13  C6  <0> d   1       1.302  -3.335  -2.521  0.00  0.00     0.019 A 
BRANCH   9  14
ATOM     14  O1  <0> d   1      -1.396  -4.473  -0.331  0.00  0.00    -0.360 OA
ATOM     15  H8  <0> d   1      -2.265  -4.156  -0.613  0.00  0.00     0.217 HD
ENDBRANCH   9  14
BRANCH  11  16
ATOM     16  O2  <0> d   1       0.835  -6.664  -3.911  0.00  0.00    -0.347 OA
BRANCH  16  17
ATOM     17  C11 <0> d   1       1.843  -6.589  -4.920  0.00  0.00     0.208 C 
BRANCH  17  18
ATOM     18  C12 <0> d   1       1.881  -7.884  -5.690  0.00  0.00    -0.069 C 
ATOM     19  C13 <0> d   1       1.058  -8.855  -5.379  0.00  0.00     0.016 C 
ATOM     20  C14 <0> d   1       2.865  -8.063  -6.817  0.00  0.00     0.044 C 
ENDBRANCH  17  18
ENDBRANCH  16  17
ENDBRANCH  11  16
ENDBRANCH   4   8
BRANCH   3  21
ATOM     21  C15 <0> d   1       0.112  -0.335  -2.511  0.00  0.00    -0.021 A 
ATOM     22  C20 <0> d   1       1.181   0.443  -2.952  0.00  0.00     0.015 A 
ATOM     23  C19 <0> d   1       1.230   0.866  -4.264  0.00  0.00     0.037 A 
ATOM     24  C18 <0> d   1       0.209   0.528  -5.142  0.00  0.00     0.068 A 
ATOM     25  C17 <0> d   1      -0.860  -0.242  -4.704  0.00  0.00     0.037 A 
ATOM     26  C16 <0> d   1      -0.911  -0.673  -3.394  0.00  0.00     0.015 A 
BRANCH  24  27
ATOM     27  O3  <0> d   1       0.256   0.951  -6.432  0.00  0.00    -0.356 OA
ATOM     28  C21 <0> d   1       1.385   1.739  -6.816  0.00  0.00     0.210 C 
ENDBRANCH  24  27
ENDBRANCH   3  21
TORSDOF 7
