REMARK  7 active torsions:
REMARK  status: ('A' for Active; 'I' for Inactive)
REMARK    1  A    between atoms: N2_5  and  C6_8 
REMARK    2  A    between atoms: C6_8  and  C7_9 
REMARK    3  A    between atoms: C8_10  and  O6_32 
REMARK    4  A    between atoms: C14_17  and  C15_18 
REMARK    5  A    between atoms: C17_20  and  O4_28 
REMARK    6  A    between atoms: C18_21  and  O3_26 
REMARK    7  A    between atoms: C20_23  and  O2_24 
ROOT
ATOM      1  C7  <0> d   1       0.969  -0.555   0.998  0.00  0.00     0.038 A 
ATOM      2  C8  <0> d   1       2.185  -1.219   0.984  0.00  0.00     0.076 A 
ATOM      3  C9  <0> d   1       3.378  -0.513   1.119  0.00  0.00     0.038 A 
ATOM      4  C10 <0> d   1       3.359   0.845   1.268  0.00  0.00     0.021 A 
ATOM      5  C11 <0> d   1       2.142   1.526   1.284  0.00  0.00     0.051 A 
ATOM      6  C12 <0> d   1       0.932   0.825   1.149  0.00  0.00     0.101 A 
ATOM      7  O1  <0> d   1      -0.102   1.693   1.189  0.00  0.00    -0.305 OA
ATOM      8  C13 <0> d   1       0.318   2.969   1.355  0.00  0.00     0.128 A 
ATOM      9  C14 <0> d   1      -0.474   4.071   1.438  0.00  0.00     0.055 C 
ATOM     10  C24 <0> d   1       1.784   2.949   1.424  0.00  0.00     0.218 A 
ATOM     11  O5  <0> d   1       2.537   3.897   1.564  0.00  0.00    -0.284 OA
ENDROOT
BRANCH   9  12
ATOM     12  C15 <0> d   1      -1.931   3.924   1.483  0.00  0.00     0.003 A 
ATOM     13  C20 <0> d   1      -2.761   5.027   1.214  0.00  0.00     0.081 A 
ATOM     14  C19 <0> d   1      -4.136   4.879   1.254  0.00  0.00     0.077 A 
ATOM     15  C18 <0> d   1      -4.695   3.649   1.567  0.00  0.00     0.104 A 
ATOM     16  C17 <0> d   1      -3.876   2.552   1.840  0.00  0.00     0.102 A 
ATOM     17  C16 <0> d   1      -2.505   2.684   1.799  0.00  0.00     0.054 A 
BRANCH  13  18
ATOM     18  O2  <0> d   1      -2.215   6.232   0.912  0.00  0.00    -0.355 OA
ATOM     19  C21 <0> d   1      -3.119   7.307   0.651  0.00  0.00     0.210 C 
ENDBRANCH  13  18
BRANCH  15  20
ATOM     20  O3  <0> d   1      -6.046   3.512   1.610  0.00  0.00    -0.353 OA
ATOM     21  C22 <0> d   1      -6.825   4.674   1.321  0.00  0.00     0.210 C 
ENDBRANCH  15  20
BRANCH  16  22
ATOM     22  O4  <0> d   1      -4.433   1.349   2.147  0.00  0.00    -0.353 OA
ATOM     23  C23 <0> d   1      -3.542   0.302   2.538  0.00  0.00     0.210 C 
ENDBRANCH  16  22
ENDBRANCH   9  12
BRANCH   1  24
ATOM     24  C6  <0> d   1      -0.315  -1.332   0.850  0.00  0.00     0.317 C 
BRANCH  24  25
ATOM     25  N2  <0> d   1      -0.589  -1.557  -0.576  0.00  0.00     0.096 N 
ATOM     26  C3  <0> d   1      -1.598  -2.609  -0.758  0.00  0.00     0.300 C 
ATOM     27  C2  <0> d   1      -1.797  -2.869  -2.253  0.00  0.00     0.264 C 
ATOM     28  N1  <0> d   1      -2.213  -1.623  -2.912  0.00  0.00    -0.072 N 
ATOM     29  C1  <0> d   1      -2.488  -1.849  -4.338  0.00  0.00     0.269 C 
ATOM     30  C5  <0> d   1      -1.204  -0.571  -2.730  0.00  0.00     0.264 C 
ATOM     31  H29 <0> d   1      -3.147  -1.284  -2.439  0.00  0.00     0.279 HD
ATOM     32  C4  <0> d   1      -1.005  -0.312  -1.235  0.00  0.00     0.300 C 
ENDBRANCH  24  25
ENDBRANCH   1  24
BRANCH   2  33
ATOM     33  O6  <0> d   1       2.214  -2.568   0.837  0.00  0.00    -0.360 OA
ATOM     34  H28 <0> d   1       3.177  -3.099   0.825  0.00  0.00     0.217 HD
ENDBRANCH   2  33
TORSDOF 7
