REMARK  1 active torsions:
REMARK  status: ('A' for Active; 'I' for Inactive)
REMARK    1  A    between atoms: C9_10  and  C10_11 
ROOT
ATOM      1  C1  <0> d   1       3.134  -2.145  -0.040  0.00  0.00     0.054 C 
ATOM      2  C2  <0> d   1       1.688  -1.723  -0.024  0.00  0.00     0.009 A 
ATOM      3  C3  <0> d   1       0.685  -2.680  -0.020  0.00  0.00     0.116 A 
ATOM      4  C4  <0> d   1      -0.654  -2.302  -0.005  0.00  0.00     0.041 A 
ATOM      5  C5  <0> d   1      -0.996  -0.978   0.006  0.00  0.00     0.021 A 
ATOM      6  C6  <0> d   1       0.002  -0.004   0.002  0.00  0.00     0.051 A 
ATOM      7  C7  <0> d   1       1.357  -0.375  -0.013  0.00  0.00     0.099 A 
ATOM      8  O1  <0> d   1       2.114   0.744  -0.014  0.00  0.00    -0.305 OA
ATOM      9  C8  <0> d   1       1.347   1.860  -0.001  0.00  0.00     0.128 A 
ATOM     10  C9  <0> d   1       1.809   3.144   0.001  0.00  0.00     0.060 C 
ATOM     11  C14 <0> d   1      -0.018   1.469   0.010  0.00  0.00     0.218 A 
ATOM     12  O2  <0> d   1      -0.997   2.197   0.019  0.00  0.00    -0.284 OA
ATOM     13  O3  <0> d   1       1.013  -3.997  -0.031  0.00  0.00    -0.192 OA
ENDROOT
BRANCH  10  14
ATOM     14  C10 <0> d   1       3.199   3.394  -0.011  0.00  0.00     0.007 A 
ATOM     15  S1  <0> d   1       4.552   2.231  -0.021  0.00  0.00    -0.102 SA
ATOM     16  C13 <0> d   1       5.867   3.361  -0.036  0.00  0.00     0.050 A 
ATOM     17  C12 <0> d   1       5.242   4.568  -0.024  0.00  0.00     0.008 A 
ATOM     18  C11 <0> d   1       3.871   4.614  -0.011  0.00  0.00     0.019 A 
ENDBRANCH  10  14
TORSDOF 1
