REMARK  5 active torsions:
REMARK  status: ('A' for Active; 'I' for Inactive)
REMARK    1  A    between atoms: N1_5  and  C7_8 
REMARK    2  A    between atoms: C7_8  and  C8_9 
REMARK    3  A    between atoms: C15_17  and  O3_20 
REMARK    4  A    between atoms: O3_20  and  C17_21 
REMARK    5  A    between atoms: C22_26  and  O4_27 
ROOT
ATOM      1  C8  <0> d   1      -2.442   4.036   0.055  0.00  0.00     0.039 A 
ATOM      2  C9  <0> d   1      -3.648   3.357   0.097  0.00  0.00     0.118 A 
ATOM      3  C10 <0> d   1      -3.676   1.964   0.123  0.00  0.00     0.041 A 
ATOM      4  C11 <0> d   1      -2.512   1.249   0.108  0.00  0.00     0.021 A 
ATOM      5  C12 <0> d   1      -1.289   1.919   0.059  0.00  0.00     0.051 A 
ATOM      6  C13 <0> d   1      -1.251   3.325   0.039  0.00  0.00     0.100 A 
ATOM      7  O1  <0> d   1      -0.063   3.961  -0.002  0.00  0.00    -0.318 OA
ATOM      8  C14 <0> d   1       1.104   3.304  -0.019  0.00  0.00     0.184 A 
ATOM      9  C15 <0> d   1       1.183   1.958   0.004  0.00  0.00     0.149 A 
ATOM     10  C16 <0> d   1      -0.012   1.185   0.048  0.00  0.00     0.220 A 
ATOM     11  O2  <0> d   1       0.021  -0.034   0.070  0.00  0.00    -0.284 OA
ATOM     12  O5  <0> d   1      -4.812   4.054   0.113  0.00  0.00    -0.191 OA
ENDROOT
BRANCH   1  13
ATOM     13  C7  <0> d   1      -2.423   5.543   0.027  0.00  0.00     0.279 C 
BRANCH  13  14
ATOM     14  N1  <0> d   1      -2.451   6.008  -1.366  0.00  0.00    -0.067 N 
ATOM     15  C4  <0> d   1      -2.672   7.458  -1.433  0.00  0.00     0.235 C 
ATOM     16  C3  <0> d   1      -2.550   7.927  -2.885  0.00  0.00     0.032 C 
ATOM     17  C2  <0> d   1      -3.586   7.194  -3.742  0.00  0.00    -0.015 C 
ATOM     18  C1  <0> d   1      -3.428   7.614  -5.205  0.00  0.00     0.010 C 
ATOM     19  C6  <0> d   1      -3.364   5.684  -3.616  0.00  0.00     0.032 C 
ATOM     20  C5  <0> d   1      -3.462   5.280  -2.144  0.00  0.00     0.235 C 
ATOM     21  H25 <0> d   1      -1.468   5.797  -1.814  0.00  0.00     0.280 HD
ENDBRANCH  13  14
ENDBRANCH   1  13
BRANCH   9  22
ATOM     22  O3  <0> d   1       2.397   1.343  -0.013  0.00  0.00    -0.302 OA
BRANCH  22  23
ATOM     23  C17 <0> d   1       2.855   0.869  -1.202  0.00  0.00     0.109 A 
ATOM     24  C22 <0> d   1       4.032   0.127  -1.251  0.00  0.00     0.102 A 
ATOM     25  C21 <0> d   1       4.494  -0.355  -2.465  0.00  0.00     0.039 A 
ATOM     26  C20 <0> d   1       3.787  -0.098  -3.625  0.00  0.00     0.003 A 
ATOM     27  C19 <0> d   1       2.618   0.639  -3.577  0.00  0.00     0.003 A 
ATOM     28  C18 <0> d   1       2.149   1.119  -2.368  0.00  0.00     0.040 A 
BRANCH  24  29
ATOM     29  O4  <0> d   1       4.726  -0.126  -0.109  0.00  0.00    -0.353 OA
ATOM     30  C23 <0> d   1       5.924  -0.894  -0.234  0.00  0.00     0.210 C 
ENDBRANCH  24  29
ENDBRANCH  22  23
ENDBRANCH   9  22
TORSDOF 5
