REMARK  5 active torsions:
REMARK  status: ('A' for Active; 'I' for Inactive)
REMARK    1  A    between atoms: C5_5  and  C12_14 
REMARK    2  A    between atoms: C12_14  and  N1_15 
REMARK    3  A    between atoms: N2_18  and  C17_21 
REMARK    4  A    between atoms: C17_21  and  C18_22 
REMARK    5  A    between atoms: C18_22  and  O3_23 
ROOT
ATOM      1  C1  <0> d   1       1.367   7.864   2.036  0.00  0.00     0.049 C 
ATOM      2  C2  <0> d   1       1.161   6.724   3.000  0.00  0.00    -0.055 A 
ATOM      3  C3  <0> d   1       0.193   5.793   2.752  0.00  0.00     0.022 A 
ATOM      4  C4  <0> d   1       0.002   4.736   3.646  0.00  0.00     0.007 A 
ATOM      5  C5  <0> d   1      -1.029   3.720   3.409  0.00  0.00    -0.011 A 
ATOM      6  C6  <0> d   1      -1.167   2.723   4.319  0.00  0.00     0.092 A 
ATOM      7  C7  <0> d   1      -0.320   2.681   5.449  0.00  0.00     0.288 A 
ATOM      8  O1  <0> d   1      -0.451   1.778   6.255  0.00  0.00    -0.260 OA
ATOM      9  O2  <0> d   1       0.621   3.614   5.659  0.00  0.00    -0.275 OA
ATOM     10  C8  <0> d   1       0.806   4.635   4.795  0.00  0.00     0.090 A 
ATOM     11  C9  <0> d   1       1.785   5.593   5.027  0.00  0.00     0.045 A 
ATOM     12  C10 <0> d   1       1.957   6.628   4.132  0.00  0.00    -0.053 A 
ATOM     13  C11 <0> d   1       3.020   7.666   4.387  0.00  0.00     0.049 C 
ENDROOT
BRANCH   5  14
ATOM     14  C12 <0> d   1      -1.915   3.786   2.192  0.00  0.00     0.312 C 
BRANCH  14  15
ATOM     15  N1  <0> d   1      -1.189   3.256   1.030  0.00  0.00     0.096 N 
ATOM     16  C16 <0> d   1      -1.925   3.519  -0.215  0.00  0.00     0.303 C 
ATOM     17  C15 <0> d   1      -1.102   3.023  -1.406  0.00  0.00     0.302 C 
ATOM     18  N2  <0> d   1      -0.834   1.587  -1.249  0.00  0.00     0.093 N 
ATOM     19  C14 <0> d   1      -0.098   1.324  -0.005  0.00  0.00     0.302 C 
ATOM     20  C13 <0> d   1      -0.921   1.819   1.187  0.00  0.00     0.303 C 
BRANCH  18  21
ATOM     21  C17 <0> d   1      -0.109   1.057  -2.412  0.00  0.00     0.298 C 
BRANCH  21  22
ATOM     22  C18 <0> d   1      -0.268  -0.464  -2.462  0.00  0.00     0.194 C 
BRANCH  22  23
ATOM     23  O3  <0> d   1      -1.641  -0.792  -2.682  0.00  0.00    -0.399 OA
ATOM     24  H24 <0> d   1      -1.951  -1.846  -2.748  0.00  0.00     0.209 HD
ENDBRANCH  22  23
ENDBRANCH  21  22
ENDBRANCH  18  21
ENDBRANCH  14  15
ENDBRANCH   5  14
TORSDOF 5
