REMARK  5 active torsions:
REMARK  status: ('A' for Active; 'I' for Inactive)
REMARK    1  A    between atoms: C4_4  and  O3_27 
REMARK    2  A    between atoms: C6_6  and  C11_13 
REMARK    3  A    between atoms: C11_13  and  N1_14 
REMARK    4  A    between atoms: N2_17  and  C16_20 
REMARK    5  A    between atoms: C16_20  and  C17_21 
ROOT
ATOM      1  C1  <0> d   1      -0.018   1.503   0.010  0.00  0.00     0.048 C 
ATOM      2  C2  <0> d   1       0.002  -0.004   0.002  0.00  0.00    -0.057 A 
ATOM      3  C3  <0> d   1       0.006  -0.682  -1.206  0.00  0.00     0.044 A 
ATOM      4  C4  <0> d   1       0.024  -2.065  -1.230  0.00  0.00     0.079 A 
ATOM      5  C5  <0> d   1       0.040  -2.776  -0.019  0.00  0.00     0.039 A 
ATOM      6  C6  <0> d   1       0.061  -4.239  -0.004  0.00  0.00    -0.009 A 
ATOM      7  C7  <0> d   1       0.076  -4.868   1.200  0.00  0.00     0.092 A 
ATOM      8  C8  <0> d   1       0.071  -4.108   2.388  0.00  0.00     0.288 A 
ATOM      9  O1  <0> d   1       0.086  -4.684   3.461  0.00  0.00    -0.260 OA
ATOM     10  O2  <0> d   1       0.052  -2.766   2.366  0.00  0.00    -0.275 OA
ATOM     11  C9  <0> d   1       0.037  -2.080   1.202  0.00  0.00     0.093 A 
ATOM     12  C10 <0> d   1       0.023  -0.693   1.198  0.00  0.00     0.045 A 
ENDROOT
BRANCH   6  13
ATOM     13  C11 <0> d   1       0.065  -5.027  -1.289  0.00  0.00     0.312 C 
BRANCH  13  14
ATOM     14  N1  <0> d   1      -1.315  -5.199  -1.762  0.00  0.00     0.096 N 
ATOM     15  C15 <0> d   1      -1.341  -5.752  -3.123  0.00  0.00     0.303 C 
ATOM     16  C14 <0> d   1      -2.790  -5.841  -3.608  0.00  0.00     0.303 C 
ATOM     17  N2  <0> d   1      -3.561  -6.686  -2.686  0.00  0.00     0.096 N 
ATOM     18  C13 <0> d   1      -3.535  -6.134  -1.324  0.00  0.00     0.303 C 
ATOM     19  C12 <0> d   1      -2.087  -6.045  -0.839  0.00  0.00     0.303 C 
BRANCH  17  20
ATOM     20  C16 <0> d   1      -4.941  -6.859  -3.158  0.00  0.00     0.311 C 
BRANCH  20  21
ATOM     21  C17 <0> d   1      -4.937  -7.647  -4.443  0.00  0.00    -0.030 A 
ATOM     22  C22 <0> d   1      -5.022  -9.026  -4.408  0.00  0.00     0.009 A 
ATOM     23  C21 <0> d   1      -5.022  -9.748  -5.587  0.00  0.00     0.001 A 
ATOM     24  C20 <0> d   1      -4.929  -9.092  -6.800  0.00  0.00     0.000 A 
ATOM     25  C19 <0> d   1      -4.839  -7.713  -6.834  0.00  0.00     0.001 A 
ATOM     26  C18 <0> d   1      -4.843  -6.990  -5.656  0.00  0.00     0.009 A 
ENDBRANCH  20  21
ENDBRANCH  17  20
ENDBRANCH  13  14
ENDBRANCH   6  13
BRANCH   4  27
ATOM     27  O3  <0> d   1       0.027  -2.729  -2.413  0.00  0.00    -0.360 OA
ATOM     28  H24 <0> d   1       0.911  -2.909  -2.761  0.00  0.00     0.217 HD
ENDBRANCH   4  27
TORSDOF 5
