REMARK  11 active torsions:
REMARK  status: ('A' for Active; 'I' for Inactive)
REMARK    1  A    between atoms: C2_2  and  C3_3 
REMARK    2  A    between atoms: C7_8  and  C22_30 
REMARK    3  A    between atoms: C8_9  and  C19_25 
REMARK    4  A    between atoms: C10_12  and  C12_15 
REMARK    5  A    between atoms: C11_13  and  O3_14 
REMARK    6  A    between atoms: C12_15  and  N1_16 
REMARK    7  A    between atoms: N2_19  and  C17_22 
REMARK    8  A    between atoms: C17_22  and  C18_23 
REMARK    9  A    between atoms: C18_23  and  O4_24 
REMARK   10  A    between atoms: C19_25  and  O6_27 
REMARK   11  A    between atoms: O6_27  and  C20_28 
ROOT
ATOM      1  C3  <0> d   1       0.707  -0.490  -1.238  0.00  0.00    -0.024 A 
ATOM      2  C4  <0> d   1      -0.017  -0.812  -2.350  0.00  0.00     0.028 A 
ATOM      3  C5  <0> d   1       0.639  -1.262  -3.497  0.00  0.00     0.050 A 
ATOM      4  C6  <0> d   1      -0.110  -1.634  -4.710  0.00  0.00     0.199 C 
ATOM      5  O1  <0> d   1      -1.286  -1.355  -4.853  0.00  0.00    -0.286 OA
ATOM      6  C7  <0> d   1       0.655  -2.368  -5.747  0.00  0.00     0.065 C 
ATOM      7  C8  <0> d   1       2.028  -2.407  -5.630  0.00  0.00     0.166 C 
ATOM      8  O2  <0> d   1       2.679  -1.797  -4.628  0.00  0.00    -0.302 OA
ATOM      9  C9  <0> d   1       2.042  -1.379  -3.518  0.00  0.00     0.101 A 
ATOM     10  C10 <0> d   1       2.762  -1.050  -2.376  0.00  0.00     0.038 A 
ATOM     11  C11 <0> d   1       2.097  -0.603  -1.247  0.00  0.00     0.082 A 
ENDROOT
BRANCH  10  12
ATOM     12  C12 <0> d   1       4.264  -1.173  -2.368  0.00  0.00     0.317 C 
BRANCH  12  13
ATOM     13  N1  <0> d   1       4.861   0.093  -2.812  0.00  0.00     0.096 N 
ATOM     14  C16 <0> d   1       6.315   0.095  -2.594  0.00  0.00     0.303 C 
ATOM     15  C15 <0> d   1       6.886   1.457  -2.993  0.00  0.00     0.302 C 
ATOM     16  N2  <0> d   1       6.568   1.725  -4.402  0.00  0.00     0.093 N 
ATOM     17  C14 <0> d   1       5.115   1.724  -4.620  0.00  0.00     0.302 C 
ATOM     18  C13 <0> d   1       4.543   0.361  -4.221  0.00  0.00     0.303 C 
BRANCH  16  19
ATOM     19  C17 <0> d   1       7.166   2.992  -4.846  0.00  0.00     0.298 C 
BRANCH  19  20
ATOM     20  C18 <0> d   1       8.691   2.866  -4.838  0.00  0.00     0.194 C 
BRANCH  20  21
ATOM     21  O4  <0> d   1       9.094   1.898  -5.808  0.00  0.00    -0.399 OA
ATOM     22  H22 <0> d   1      10.051   1.766  -5.859  0.00  0.00     0.209 HD
ENDBRANCH  20  21
ENDBRANCH  19  20
ENDBRANCH  16  19
ENDBRANCH  12  13
ENDBRANCH  10  12
BRANCH  11  23
ATOM     23  O3  <0> d   1       2.804  -0.277  -0.135  0.00  0.00    -0.359 OA
ATOM     24  H7  <0> d   1       2.943  -1.016   0.473  0.00  0.00     0.217 HD
ENDBRANCH  11  23
BRANCH   1  25
ATOM     25  C2  <0> d   1       0.002  -0.004   0.002  0.00  0.00     0.037 C 
ATOM     26  C1  <0> d   1      -0.019   1.526   0.010  0.00  0.00     0.010 C 
ENDBRANCH   1  25
BRANCH   7  27
ATOM     27  C19 <0> d   1       2.808  -3.145  -6.641  0.00  0.00     0.318 C 
ATOM     28  O5  <0> d   1       2.240  -3.705  -7.557  0.00  0.00    -0.257 OA
BRANCH  27  29
ATOM     29  O6  <0> d   1       4.152  -3.198  -6.548  0.00  0.00    -0.316 OA
BRANCH  29  30
ATOM     30  C20 <0> d   1       4.843  -3.930  -7.562  0.00  0.00     0.175 C 
ATOM     31  C21 <0> d   1       6.348  -3.879  -7.291  0.00  0.00     0.034 C 
ENDBRANCH  29  30
ENDBRANCH  27  29
ENDBRANCH   7  27
BRANCH   6  32
ATOM     32  C22 <0> d   1      -0.034  -3.037  -6.871  0.00  0.00    -0.016 A 
ATOM     33  C27 <0> d   1      -0.886  -4.115  -6.628  0.00  0.00     0.052 A 
ATOM     34  C26 <0> d   1      -1.534  -4.735  -7.682  0.00  0.00     0.102 A 
ATOM     35  C25 <0> d   1      -1.327  -4.290  -8.984  0.00  0.00     0.102 A 
ATOM     36  O7  <0> d   1      -2.362  -5.786  -7.429  0.00  0.00    -0.346 OA
ATOM     37  C24 <0> d   1      -0.473  -3.221  -9.226  0.00  0.00     0.040 A 
ATOM     38  O8  <0> d   1      -1.956  -4.888 -10.032  0.00  0.00    -0.346 OA
ATOM     39  C23 <0> d   1       0.171  -2.596  -8.180  0.00  0.00     0.015 A 
ATOM     40  C29 <0> d   1      -2.506  -6.189  -9.795  0.00  0.00     0.202 C 
ATOM     41  C28 <0> d   1      -3.277  -6.149  -8.468  0.00  0.00     0.202 C 
ENDBRANCH   6  32
TORSDOF 11
