REMARK  5 active torsions:
REMARK  status: ('A' for Active; 'I' for Inactive)
REMARK    1  A    between atoms: N1_2  and  C3_4 
REMARK    2  A    between atoms: C3_4  and  C4_5 
REMARK    3  A    between atoms: C11_13  and  C13_16 
REMARK    4  A    between atoms: C16_19  and  O4_24 
REMARK    5  A    between atoms: C17_20  and  O3_22 
ROOT
ATOM      1  C4  <0> d   1      -0.718   1.572   1.248  0.00  0.00     0.039 A 
ATOM      2  C5  <0> d   1      -0.361   2.781   1.821  0.00  0.00     0.118 A 
ATOM      3  C6  <0> d   1      -1.010   3.244   2.963  0.00  0.00     0.041 A 
ATOM      4  C7  <0> d   1      -2.002   2.502   3.541  0.00  0.00     0.021 A 
ATOM      5  C8  <0> d   1      -2.369   1.279   2.978  0.00  0.00     0.050 A 
ATOM      6  C9  <0> d   1      -1.724   0.806   1.822  0.00  0.00     0.100 A 
ATOM      7  O1  <0> d   1      -2.081  -0.375   1.280  0.00  0.00    -0.320 OA
ATOM      8  C10 <0> d   1      -3.040  -1.154   1.786  0.00  0.00     0.159 A 
ATOM      9  C11 <0> d   1      -3.743  -0.819   2.899  0.00  0.00     0.048 A 
ATOM     10  C12 <0> d   1      -3.435   0.453   3.574  0.00  0.00     0.197 A 
ATOM     11  O2  <0> d   1      -4.032   0.806   4.576  0.00  0.00    -0.286 OA
ATOM     12  O5  <0> d   1       0.627   3.524   1.261  0.00  0.00    -0.191 OA
ENDROOT
BRANCH   9  13
ATOM     13  C13 <0> d   1      -4.799  -1.718   3.424  0.00  0.00    -0.017 A 
ATOM     14  C18 <0> d   1      -5.788  -2.206   2.572  0.00  0.00     0.052 A 
ATOM     15  C17 <0> d   1      -6.769  -3.048   3.066  0.00  0.00     0.102 A 
ATOM     16  C16 <0> d   1      -6.774  -3.396   4.413  0.00  0.00     0.101 A 
ATOM     17  C15 <0> d   1      -5.793  -2.905   5.262  0.00  0.00     0.040 A 
ATOM     18  C14 <0> d   1      -4.809  -2.070   4.773  0.00  0.00     0.015 A 
BRANCH  15  19
ATOM     19  O3  <0> d   1      -7.732  -3.530   2.235  0.00  0.00    -0.353 OA
ATOM     20  C19 <0> d   1      -7.666  -3.131   0.865  0.00  0.00     0.210 C 
ENDBRANCH  15  19
BRANCH  16  21
ATOM     21  O4  <0> d   1      -7.742  -4.218   4.899  0.00  0.00    -0.353 OA
ATOM     22  C20 <0> d   1      -7.686  -4.534   6.292  0.00  0.00     0.210 C 
ENDBRANCH  16  21
ENDBRANCH   9  13
BRANCH   1  23
ATOM     23  C3  <0> d   1      -0.013   1.086   0.008  0.00  0.00     0.278 C 
BRANCH  23  24
ATOM     24  N1  <0> d   1      -0.723   1.572  -1.182  0.00  0.00    -0.075 N 
ATOM     25  C1  <0> d   1      -0.640   3.036  -1.283  0.00  0.00     0.269 C 
ATOM     26  C2  <0> d   1      -0.211   0.930  -2.400  0.00  0.00     0.269 C 
ATOM     27  H21 <0> d   1      -1.784   1.301  -1.077  0.00  0.00     0.279 HD
ENDBRANCH  23  24
ENDBRANCH   1  23
TORSDOF 5
