REMARK  9 active torsions:
REMARK  status: ('A' for Active; 'I' for Inactive)
REMARK    1  A    between atoms: C2_2  and  C4_4 
REMARK    2  A    between atoms: C4_4  and  N1_5 
REMARK    3  A    between atoms: N1_5  and  C5_6 
REMARK    4  A    between atoms: N1_5  and  C25_31 
REMARK    5  A    between atoms: C5_6  and  C6_7 
REMARK    6  A    between atoms: C7_8  and  O4_30 
REMARK    7  A    between atoms: C13_15  and  C14_16 
REMARK    8  A    between atoms: C19_22  and  O2_25 
REMARK    9  A    between atoms: C25_31  and  C26_32 
ROOT
ATOM      1  C6  <0> d   1       6.492  -5.168   0.312  0.00  0.00     0.036 A 
ATOM      2  C7  <0> d   1       7.742  -5.763   0.250  0.00  0.00     0.076 A 
ATOM      3  C8  <0> d   1       8.895  -5.012   0.459  0.00  0.00     0.038 A 
ATOM      4  C9  <0> d   1       8.806  -3.675   0.726  0.00  0.00     0.021 A 
ATOM      5  C10 <0> d   1       7.555  -3.062   0.792  0.00  0.00     0.051 A 
ATOM      6  C11 <0> d   1       6.385  -3.811   0.583  0.00  0.00     0.101 A 
ATOM      7  O1  <0> d   1       5.317  -2.993   0.705  0.00  0.00    -0.305 OA
ATOM      8  C12 <0> d   1       5.697  -1.722   0.976  0.00  0.00     0.128 A 
ATOM      9  C13 <0> d   1       4.859  -0.661   1.153  0.00  0.00     0.055 C 
ATOM     10  C24 <0> d   1       7.114  -1.680   1.052  0.00  0.00     0.218 A 
ATOM     11  O3  <0> d   1       7.816  -0.710   1.284  0.00  0.00    -0.284 OA
ENDROOT
BRANCH   9  12
ATOM     12  C14 <0> d   1       3.413  -0.847   1.046  0.00  0.00    -0.005 A 
ATOM     13  C17 <0> d   1       2.374   0.188   1.207  0.00  0.00     0.005 A 
ATOM     14  C16 <0> d   1       1.145  -0.464   1.016  0.00  0.00     0.045 A 
ATOM     15  C18 <0> d   1       2.406   1.551   1.487  0.00  0.00     0.051 A 
ATOM     16  N2  <0> d   1       1.412  -1.795   0.758  0.00  0.00    -0.360 N 
ATOM     17  C21 <0> d   1      -0.036   0.264   1.108  0.00  0.00     0.033 A 
ATOM     18  C15 <0> d   1       2.748  -2.024   0.774  0.00  0.00     0.103 A 
ATOM     19  C23 <0> d   1       0.394  -2.816   0.501  0.00  0.00     0.156 C 
ATOM     20  C20 <0> d   1       0.005   1.613   1.386  0.00  0.00     0.039 A 
ATOM     21  C19 <0> d   1       1.222   2.260   1.575  0.00  0.00     0.069 A 
BRANCH  21  22
ATOM     22  O2  <0> d   1       1.247   3.591   1.848  0.00  0.00    -0.356 OA
ATOM     23  C22 <0> d   1      -0.013   4.262   1.925  0.00  0.00     0.210 C 
ENDBRANCH  21  22
ENDBRANCH   9  12
BRANCH   1  24
ATOM     24  C5  <0> d   1       5.252  -5.992   0.084  0.00  0.00     0.279 C 
BRANCH  24  25
ATOM     25  N1  <0> d   1       5.086  -6.241  -1.355  0.00  0.00    -0.066 N 
ATOM     26  H34 <0> d   1       6.059  -6.561  -1.757  0.00  0.00     0.280 HD
BRANCH  25  27
ATOM     27  C4  <0> d   1       4.122  -7.323  -1.595  0.00  0.00     0.239 C 
BRANCH  27  28
ATOM     28  C2  <0> d   1       4.160  -7.722  -3.071  0.00  0.00     0.003 C 
ATOM     29  C1  <0> d   1       5.529  -8.320  -3.403  0.00  0.00     0.011 C 
ATOM     30  C3  <0> d   1       3.070  -8.760  -3.347  0.00  0.00     0.011 C 
ENDBRANCH  27  28
ENDBRANCH  25  27
BRANCH  25  31
ATOM     31  C25 <0> d   1       4.688  -5.015  -2.059  0.00  0.00     0.239 C 
BRANCH  31  32
ATOM     32  C26 <0> d   1       5.936  -4.209  -2.425  0.00  0.00     0.003 C 
ATOM     33  C27 <0> d   1       6.779  -5.000  -3.427  0.00  0.00     0.011 C 
ATOM     34  C28 <0> d   1       5.517  -2.877  -3.050  0.00  0.00     0.011 C 
ENDBRANCH  31  32
ENDBRANCH  25  31
ENDBRANCH  24  25
ENDBRANCH   1  24
BRANCH   2  35
ATOM     35  O4  <0> d   1       7.843  -7.091  -0.015  0.00  0.00    -0.360 OA
ATOM     36  H35 <0> d   1       8.832  -7.568  -0.065  0.00  0.00     0.217 HD
ENDBRANCH   2  35
TORSDOF 9
