REMARK  9 active torsions:
REMARK  status: ('A' for Active; 'I' for Inactive)
REMARK    1  A    between atoms: O1_2  and  C2_3 
REMARK    2  A    between atoms: C5_6  and  N1_9 
REMARK    3  A    between atoms: N2_12  and  C12_15 
REMARK    4  A    between atoms: C12_15  and  C13_16 
REMARK    5  A    between atoms: C13_16  and  O2_17 
REMARK    6  A    between atoms: O2_17  and  C14_18 
REMARK    7  A    between atoms: C17_21  and  C20_25 
REMARK    8  A    between atoms: C18_22  and  O3_24 
REMARK    9  A    between atoms: C21_26  and  C23_31 
ROOT
ATOM      1  C14 <0> d   1      -9.924  -7.038   0.189  0.00  0.00     0.071 A 
ATOM      2  C15 <0> d   1      -9.484  -7.948  -0.766  0.00  0.00     0.038 A 
ATOM      3  C16 <0> d   1      -9.663  -9.300  -0.569  0.00  0.00     0.019 A 
ATOM      4  C17 <0> d   1     -10.289  -9.759   0.592  0.00  0.00     0.026 A 
ATOM      5  C18 <0> d   1     -10.732  -8.841   1.553  0.00  0.00     0.081 A 
ATOM      6  C19 <0> d   1     -10.541  -7.485   1.348  0.00  0.00     0.074 A 
ENDROOT
BRANCH   1   7
ATOM      7  O2  <0> d   1      -9.744  -5.707  -0.012  0.00  0.00    -0.349 OA
BRANCH   7   8
ATOM      8  C13 <0> d   1      -9.101  -5.314  -1.227  0.00  0.00     0.203 C 
BRANCH   8   9
ATOM      9  C12 <0> d   1      -8.988  -3.789  -1.275  0.00  0.00     0.261 C 
BRANCH   9  10
ATOM     10  N2  <0> d   1      -8.098  -3.331  -0.199  0.00  0.00    -0.066 N 
ATOM     11  C9  <0> d   1      -8.085  -1.863  -0.171  0.00  0.00     0.254 C 
ATOM     12  C8  <0> d   1      -7.249  -1.384   1.021  0.00  0.00     0.150 C 
ATOM     13  N1  <0> d   1      -5.917  -2.002   0.935  0.00  0.00    -0.378 N 
ATOM     14  C11 <0> d   1      -5.840  -3.457   0.735  0.00  0.00     0.150 C 
ATOM     15  C10 <0> d   1      -6.742  -3.839  -0.438  0.00  0.00     0.254 C 
ATOM     16  H31 <0> d   1      -8.436  -3.680   0.685  0.00  0.00     0.280 HD
BRANCH  13  17
ATOM     17  C5  <0> d   1      -4.756  -1.227   1.036  0.00  0.00     0.030 A 
ATOM     18  C4  <0> d   1      -3.511  -1.841   1.069  0.00  0.00     0.032 A 
ATOM     19  C3  <0> d   1      -2.366  -1.075   1.168  0.00  0.00     0.039 A 
ATOM     20  C2  <0> d   1      -2.459   0.307   1.233  0.00  0.00     0.068 A 
ATOM     21  C7  <0> d   1      -3.703   0.921   1.206  0.00  0.00     0.039 A 
ATOM     22  C6  <0> d   1      -4.849   0.157   1.102  0.00  0.00     0.032 A 
BRANCH  20  23
ATOM     23  O1  <0> d   1      -1.331   1.060   1.330  0.00  0.00    -0.356 OA
ATOM     24  C1  <0> d   1      -0.085   0.362   1.353  0.00  0.00     0.210 C 
ENDBRANCH  20  23
ENDBRANCH  13  17
ENDBRANCH   9  10
ENDBRANCH   8   9
ENDBRANCH   7   8
ENDBRANCH   1   7
BRANCH   5  25
ATOM     25  O3  <0> d   1     -11.341  -9.279   2.684  0.00  0.00    -0.360 OA
ATOM     26  H24 <0> d   1     -10.734  -9.452   3.417  0.00  0.00     0.217 HD
ENDBRANCH   5  25
BRANCH   4  27
ATOM     27  C20 <0> d   1     -10.483 -11.207   0.806  0.00  0.00     0.075 A 
ATOM     28  N4  <0> d   1     -11.275 -12.036   0.069  0.00  0.00    -0.277 N 
ATOM     29  N3  <0> d   1     -11.171 -13.325   0.605  0.00  0.00    -0.186 NA
ATOM     30  H1  <0> d   1     -11.815 -11.778  -0.694  0.00  0.00     0.189 HD
ATOM     31  C22 <0> d   1     -10.361 -13.298   1.629  0.00  0.00     0.153 A 
ATOM     32  C21 <0> d   1      -9.898 -11.981   1.800  0.00  0.00     0.022 A 
BRANCH  32  33
ATOM     33  C23 <0> d   1      -8.960 -11.507   2.845  0.00  0.00    -0.022 A 
ATOM     34  C28 <0> d   1      -9.210 -11.787   4.188  0.00  0.00     0.012 A 
ATOM     35  C27 <0> d   1      -8.330 -11.349   5.156  0.00  0.00     0.001 A 
ATOM     36  C26 <0> d   1      -7.208 -10.623   4.798  0.00  0.00     0.000 A 
ATOM     37  C25 <0> d   1      -6.958 -10.337   3.468  0.00  0.00     0.001 A 
ATOM     38  C24 <0> d   1      -7.828 -10.775   2.490  0.00  0.00     0.012 A 
ENDBRANCH  32  33
ENDBRANCH   4  27
TORSDOF 9
