REMARK  7 active torsions:
REMARK  status: ('A' for Active; 'I' for Inactive)
REMARK    1  A    between atoms: C2_2  and  C3_3 
REMARK    2  A    between atoms: C6_6  and  C9_9 
REMARK    3  A    between atoms: C16_17  and  C18_20 
REMARK    4  A    between atoms: C18_20  and  N1_21 
REMARK    5  A    between atoms: N2_24  and  C23_27 
REMARK    6  A    between atoms: C23_27  and  C24_28 
REMARK    7  A    between atoms: C24_28  and  O3_29 
ROOT
ATOM      1  C9  <0> d   1      -5.390  -1.994   0.043  0.00  0.00     0.053 C 
ATOM      2  C10 <0> d   1      -6.070  -2.131  -1.122  0.00  0.00     0.127 A 
ATOM      3  C11 <0> d   1      -7.483  -2.521  -1.263  0.00  0.00     0.218 A 
ATOM      4  O1  <0> d   1      -8.276  -2.785  -0.377  0.00  0.00    -0.284 OA
ATOM      5  C12 <0> d   1      -7.722  -2.521  -2.718  0.00  0.00     0.051 A 
ATOM      6  C13 <0> d   1      -8.844  -2.799  -3.500  0.00  0.00     0.021 A 
ATOM      7  C14 <0> d   1      -8.762  -2.714  -4.861  0.00  0.00     0.041 A 
ATOM      8  C15 <0> d   1      -7.563  -2.349  -5.469  0.00  0.00     0.118 A 
ATOM      9  C16 <0> d   1      -6.442  -2.070  -4.704  0.00  0.00     0.039 A 
ATOM     10  C17 <0> d   1      -6.508  -2.152  -3.319  0.00  0.00     0.101 A 
ATOM     11  O2  <0> d   1      -5.577  -1.930  -2.366  0.00  0.00    -0.305 OA
ATOM     12  O4  <0> d   1      -7.492  -2.267  -6.822  0.00  0.00    -0.191 OA
ENDROOT
BRANCH   9  13
ATOM     13  C18 <0> d   1      -5.151  -1.677  -5.375  0.00  0.00     0.279 C 
BRANCH  13  14
ATOM     14  N1  <0> d   1      -5.106  -0.217  -5.532  0.00  0.00    -0.064 N 
ATOM     15  C22 <0> d   1      -3.799   0.176  -6.076  0.00  0.00     0.265 C 
ATOM     16  C21 <0> d   1      -3.744   1.698  -6.222  0.00  0.00     0.300 C 
ATOM     17  N2  <0> d   1      -4.821   2.141  -7.119  0.00  0.00     0.093 N 
ATOM     18  C20 <0> d   1      -6.134   1.733  -6.600  0.00  0.00     0.300 C 
ATOM     19  C19 <0> d   1      -6.169   0.210  -6.451  0.00  0.00     0.265 C 
ATOM     20  H28 <0> d   1      -5.242   0.222  -4.634  0.00  0.00     0.280 HD
BRANCH  17  21
ATOM     21  C23 <0> d   1      -4.766   3.594  -7.330  0.00  0.00     0.298 C 
BRANCH  21  22
ATOM     22  C24 <0> d   1      -3.491   3.950  -8.097  0.00  0.00     0.194 C 
BRANCH  22  23
ATOM     23  O3  <0> d   1      -3.547   3.380  -9.406  0.00  0.00    -0.399 OA
ATOM     24  H27 <0> d   1      -2.769   3.566  -9.950  0.00  0.00     0.209 HD
ENDBRANCH  22  23
ENDBRANCH  21  22
ENDBRANCH  17  21
ENDBRANCH  13  14
ENDBRANCH   9  13
BRANCH   1  25
ATOM     25  C6  <0> d   1      -4.012  -1.480   0.033  0.00  0.00    -0.033 A 
ATOM     26  C5  <0> d   1      -3.355  -1.253  -1.182  0.00  0.00     0.012 A 
ATOM     27  C4  <0> d   1      -2.064  -0.771  -1.182  0.00  0.00     0.008 A 
ATOM     28  C3  <0> d   1      -1.417  -0.511   0.014  0.00  0.00    -0.059 A 
ATOM     29  C8  <0> d   1      -2.058  -0.739   1.220  0.00  0.00     0.008 A 
ATOM     30  C7  <0> d   1      -3.352  -1.216   1.238  0.00  0.00     0.012 A 
BRANCH  28  31
ATOM     31  C2  <0> d   1      -0.005   0.016   0.004  0.00  0.00     0.034 C 
ATOM     32  C1  <0> d   1       0.977  -1.157   0.013  0.00  0.00     0.010 C 
ENDBRANCH  28  31
ENDBRANCH   1  25
TORSDOF 7
