REMARK  8 active torsions:
REMARK  status: ('A' for Active; 'I' for Inactive)
REMARK    1  A    between atoms: C2_2  and  N1_3 
REMARK    2  A    between atoms: N2_6  and  C7_9 
REMARK    3  A    between atoms: C7_9  and  C8_10 
REMARK    4  A    between atoms: C9_11  and  O6_33 
REMARK    5  A    between atoms: C15_18  and  O3_21 
REMARK    6  A    between atoms: O3_21  and  C17_22 
REMARK    7  A    between atoms: C20_25  and  C23_28 
REMARK    8  A    between atoms: C23_28  and  O5_30 
ROOT
ATOM      1  C8  <0> d   1      -1.095   7.581  -0.166  0.00  0.00     0.035 A 
ATOM      2  C9  <0> d   1      -1.075   8.343   0.990  0.00  0.00     0.076 A 
ATOM      3  C10 <0> d   1      -1.081   7.732   2.242  0.00  0.00     0.038 A 
ATOM      4  C11 <0> d   1      -1.107   6.371   2.346  0.00  0.00     0.021 A 
ATOM      5  C12 <0> d   1      -1.127   5.589   1.191  0.00  0.00     0.052 A 
ATOM      6  C13 <0> d   1      -1.121   6.196  -0.077  0.00  0.00     0.100 A 
ATOM      7  O1  <0> d   1      -1.141   5.431  -1.187  0.00  0.00    -0.311 OA
ATOM      8  C14 <0> d   1      -1.167   4.092  -1.135  0.00  0.00     0.087 A 
ATOM      9  C15 <0> d   1      -1.175   3.408   0.026  0.00  0.00     0.156 A 
ATOM     10  C16 <0> d   1      -1.161   4.118   1.260  0.00  0.00     0.221 A 
ATOM     11  O2  <0> d   1      -1.172   3.532   2.330  0.00  0.00    -0.284 OA
ATOM     12  C25 <0> d   1      -1.187   3.320  -2.429  0.00  0.00     0.080 C 
ENDROOT
BRANCH   9  13
ATOM     13  O3  <0> d   1      -1.202   2.047   0.019  0.00  0.00    -0.304 OA
BRANCH  13  14
ATOM     14  C17 <0> d   1      -0.017   1.386   0.010  0.00  0.00     0.076 A 
ATOM     15  C22 <0> d   1       0.002  -0.004   0.002  0.00  0.00     0.038 A 
ATOM     16  C21 <0> d   1       1.202  -0.678  -0.013  0.00  0.00     0.020 A 
ATOM     17  C20 <0> d   1       2.404   0.037  -0.021  0.00  0.00     0.039 A 
ATOM     18  C19 <0> d   1       2.380   1.435  -0.013  0.00  0.00     0.020 A 
ATOM     19  C18 <0> d   1       1.176   2.102   0.002  0.00  0.00     0.038 A 
BRANCH  17  20
ATOM     20  C23 <0> d   1       3.691  -0.680  -0.036  0.00  0.00     0.292 C 
ATOM     21  O4  <0> d   1       3.710  -1.895  -0.043  0.00  0.00    -0.259 OA
BRANCH  20  22
ATOM     22  O5  <0> d   1       4.848   0.011  -0.044  0.00  0.00    -0.323 OA
ATOM     23  C24 <0> d   1       6.077  -0.761  -0.059  0.00  0.00     0.213 C 
ENDBRANCH  20  22
ENDBRANCH  17  20
ENDBRANCH  13  14
ENDBRANCH   9  13
BRANCH   1  24
ATOM     24  C7  <0> d   1      -1.089   8.252  -1.515  0.00  0.00     0.279 C 
BRANCH  24  25
ATOM     25  N2  <0> d   1      -2.472   8.497  -1.947  0.00  0.00    -0.064 N 
ATOM     26  C4  <0> d   1      -2.507   9.357  -3.138  0.00  0.00     0.265 C 
ATOM     27  C3  <0> d   1      -3.963   9.652  -3.508  0.00  0.00     0.300 C 
ATOM     28  N1  <0> d   1      -4.669   8.387  -3.753  0.00  0.00     0.091 N 
ATOM     29  C6  <0> d   1      -4.634   7.527  -2.562  0.00  0.00     0.300 C 
ATOM     30  C5  <0> d   1      -3.178   7.232  -2.193  0.00  0.00     0.265 C 
ATOM     31  H29 <0> d   1      -2.991   9.023  -1.132  0.00  0.00     0.280 HD
BRANCH  28  32
ATOM     32  C2  <0> d   1      -6.052   8.632  -4.185  0.00  0.00     0.268 C 
ATOM     33  C1  <0> d   1      -6.675   7.320  -4.668  0.00  0.00     0.037 C 
ENDBRANCH  28  32
ENDBRANCH  24  25
ENDBRANCH   1  24
BRANCH   2  34
ATOM     34  O6  <0> d   1      -1.050   9.698   0.902  0.00  0.00    -0.360 OA
ATOM     35  H28 <0> d   1      -1.034  10.308   1.817  0.00  0.00     0.217 HD
ENDBRANCH   2  34
TORSDOF 8
