REMARK  7 active torsions:
REMARK  status: ('A' for Active; 'I' for Inactive)
REMARK    1  A    between atoms: C4_4  and  O5_37 
REMARK    2  A    between atoms: C5_5  and  C19_23 
REMARK    3  A    between atoms: C10_11  and  C11_12 
REMARK    4  A    between atoms: C15_16  and  O3_20 
REMARK    5  A    between atoms: C16_17  and  O2_18 
REMARK    6  A    between atoms: C19_23  and  N1_24 
REMARK    7  A    between atoms: N2_27  and  C24_30 
ROOT
ATOM      1  C1  <0> d   1      -0.650   1.599   0.132  0.00  0.00     0.049 C 
ATOM      2  C2  <0> d   1      -0.758   0.096   0.112  0.00  0.00    -0.042 A 
ATOM      3  C3  <0> d   1      -1.038  -0.555  -1.057  0.00  0.00     0.045 A 
ATOM      4  C4  <0> d   1      -1.138  -1.943  -1.078  0.00  0.00     0.077 A 
ATOM      5  C5  <0> d   1      -0.956  -2.680   0.081  0.00  0.00     0.038 A 
ATOM      6  C6  <0> d   1      -0.671  -2.034   1.278  0.00  0.00     0.102 A 
ATOM      7  C7  <0> d   1      -0.567  -0.634   1.285  0.00  0.00     0.057 A 
ATOM      8  C8  <0> d   1      -0.255  -0.248   2.673  0.00  0.00     0.219 A 
ATOM      9  O1  <0> d   1      -0.086   0.875   3.115  0.00  0.00    -0.284 OA
ATOM     10  C9  <0> d   1      -0.192  -1.521   3.405  0.00  0.00     0.128 A 
ATOM     11  C10 <0> d   1       0.070  -1.674   4.728  0.00  0.00     0.055 C 
ATOM     12  O4  <0> d   1      -0.455  -2.514   2.522  0.00  0.00    -0.305 OA
ENDROOT
BRANCH   5  13
ATOM     13  C19 <0> d   1      -1.068  -4.183   0.044  0.00  0.00     0.317 C 
BRANCH  13  14
ATOM     14  N1  <0> d   1       0.250  -4.765  -0.240  0.00  0.00     0.096 N 
ATOM     15  C23 <0> d   1       0.234  -6.222  -0.052  0.00  0.00     0.292 C 
ATOM     16  C22 <0> d   1       1.661  -6.766  -0.180  0.00  0.00     0.153 C 
ATOM     17  N2  <0> d   1       2.221  -6.311  -1.462  0.00  0.00    -0.375 N 
ATOM     18  C21 <0> d   1       2.149  -4.877  -1.782  0.00  0.00     0.153 C 
ATOM     19  C20 <0> d   1       0.703  -4.408  -1.591  0.00  0.00     0.292 C 
BRANCH  17  20
ATOM     20  C24 <0> d   1       2.807  -7.217  -2.351  0.00  0.00     0.069 A 
ATOM     21  C29 <0> d   1       2.031  -7.841  -3.323  0.00  0.00     0.142 A 
ATOM     22  C28 <0> d   1       2.616  -8.732  -4.204  0.00  0.00     0.044 A 
ATOM     23  F1  <0> d   1       0.710  -7.572  -3.409  0.00  0.00    -0.204 F 
ATOM     24  C27 <0> d   1       3.967  -9.011  -4.111  0.00  0.00     0.003 A 
ATOM     25  C26 <0> d   1       4.739  -8.397  -3.142  0.00  0.00     0.002 A 
ATOM     26  C25 <0> d   1       4.163  -7.501  -2.263  0.00  0.00     0.032 A 
ENDBRANCH  17  20
ENDBRANCH  13  14
ENDBRANCH   5  13
BRANCH   4  27
ATOM     27  O5  <0> d   1      -1.417  -2.580  -2.244  0.00  0.00    -0.360 OA
ATOM     28  H29 <0> d   1      -0.633  -2.824  -2.755  0.00  0.00     0.217 HD
ENDBRANCH   4  27
BRANCH  11  29
ATOM     29  C11 <0> d   1      -0.017  -3.002   5.345  0.00  0.00     0.003 A 
ATOM     30  C16 <0> d   1      -0.102  -3.129   6.740  0.00  0.00     0.111 A 
ATOM     31  C15 <0> d   1      -0.190  -4.393   7.312  0.00  0.00     0.102 A 
ATOM     32  C14 <0> d   1      -0.181  -5.520   6.506  0.00  0.00     0.040 A 
ATOM     33  C13 <0> d   1      -0.092  -5.397   5.129  0.00  0.00     0.004 A 
ATOM     34  C12 <0> d   1      -0.010  -4.153   4.545  0.00  0.00     0.014 A 
BRANCH  30  35
ATOM     35  O2  <0> d   1      -0.104  -2.022   7.527  0.00  0.00    -0.352 OA
ATOM     36  C17 <0> d   1      -1.376  -1.444   7.830  0.00  0.00     0.210 C 
ENDBRANCH  30  35
BRANCH  31  37
ATOM     37  O3  <0> d   1      -0.279  -4.524   8.663  0.00  0.00    -0.353 OA
ATOM     38  C18 <0> d   1      -0.359  -5.853   9.182  0.00  0.00     0.210 C 
ENDBRANCH  31  37
ENDBRANCH  11  29
TORSDOF 7
