REMARK  10 active torsions:
REMARK  status: ('A' for Active; 'I' for Inactive)
REMARK    1  A    between atoms: C6_6  and  O5_23 
REMARK    2  A    between atoms: C10_12  and  C11_13 
REMARK    3  A    between atoms: C14_16  and  O4_21 
REMARK    4  A    between atoms: C15_17  and  O3_19 
REMARK    5  A    between atoms: O5_23  and  C19_24 
REMARK    6  A    between atoms: C19_24  and  C20_25 
REMARK    7  A    between atoms: C20_25  and  N1_26 
REMARK    8  A    between atoms: N2_29  and  C25_32 
REMARK    9  A    between atoms: C25_32  and  C26_33 
REMARK   10  A    between atoms: C26_33  and  O6_34 
ROOT
ATOM      1  C1  <0> d   1       0.102   1.407   0.076  0.00  0.00     0.050 C 
ATOM      2  C2  <0> d   1       0.227  -0.095   0.048  0.00  0.00    -0.032 C 
ATOM      3  C3  <0> d   1       0.207  -0.805  -1.181  0.00  0.00     0.005 A 
ATOM      4  C4  <0> d   1       0.272  -0.117  -2.401  0.00  0.00     0.017 A 
ATOM      5  C5  <0> d   1       0.293  -0.813  -3.573  0.00  0.00     0.038 A 
ATOM      6  C6  <0> d   1       0.243  -2.206  -3.570  0.00  0.00     0.071 A 
ATOM      7  C7  <0> d   1       0.159  -2.903  -2.375  0.00  0.00     0.075 A 
ATOM      8  C8  <0> d   1       0.130  -2.210  -1.175  0.00  0.00     0.093 A 
ATOM      9  O1  <0> d   1       0.007  -2.876  -0.001  0.00  0.00    -0.274 OA
ATOM     10  C9  <0> d   1       0.516  -2.272   1.098  0.00  0.00     0.300 C 
ATOM     11  O2  <0> d   1       1.081  -2.914   1.963  0.00  0.00    -0.259 OA
ATOM     12  C10 <0> d   1       0.369  -0.811   1.211  0.00  0.00     0.057 C 
ENDROOT
BRANCH   6  13
ATOM     13  O5  <0> d   1       0.276  -2.885  -4.745  0.00  0.00    -0.349 OA
BRANCH  13  14
ATOM     14  C19 <0> d   1       0.362  -2.107  -5.941  0.00  0.00     0.206 C 
BRANCH  14  15
ATOM     15  C20 <0> d   1       0.388  -3.039  -7.154  0.00  0.00     0.299 C 
BRANCH  15  16
ATOM     16  N1  <0> d   1      -0.892  -3.755  -7.249  0.00  0.00     0.093 N 
ATOM     17  C24 <0> d   1      -1.950  -2.876  -7.767  0.00  0.00     0.300 C 
ATOM     18  C23 <0> d   1      -3.276  -3.640  -7.794  0.00  0.00     0.265 C 
ATOM     19  N2  <0> d   1      -3.139  -4.827  -8.649  0.00  0.00    -0.066 N 
ATOM     20  C22 <0> d   1      -2.096  -5.706  -8.105  0.00  0.00     0.265 C 
ATOM     21  H33 <0> d   1      -2.885  -4.541  -9.582  0.00  0.00     0.280 HD
ATOM     22  C21 <0> d   1      -0.761  -4.959  -8.081  0.00  0.00     0.300 C 
BRANCH  19  23
ATOM     23  C25 <0> d   1      -4.417  -5.550  -8.689  0.00  0.00     0.260 C 
BRANCH  23  24
ATOM     24  C26 <0> d   1      -5.475  -4.679  -9.368  0.00  0.00     0.192 C 
BRANCH  24  25
ATOM     25  O6  <0> d   1      -5.115  -4.471 -10.736  0.00  0.00    -0.399 OA
ATOM     26  H32 <0> d   1      -5.743  -3.926 -11.230  0.00  0.00     0.209 HD
ENDBRANCH  24  25
ENDBRANCH  23  24
ENDBRANCH  19  23
ENDBRANCH  15  16
ENDBRANCH  14  15
ENDBRANCH  13  14
ENDBRANCH   6  13
BRANCH  12  27
ATOM     27  C11 <0> d   1       0.371  -0.140   2.531  0.00  0.00    -0.017 A 
ATOM     28  C16 <0> d   1      -0.653  -0.392   3.444  0.00  0.00     0.052 A 
ATOM     29  C15 <0> d   1      -0.644   0.233   4.678  0.00  0.00     0.102 A 
ATOM     30  C14 <0> d   1       0.379   1.120   5.003  0.00  0.00     0.101 A 
ATOM     31  C13 <0> d   1       1.393   1.375   4.092  0.00  0.00     0.040 A 
ATOM     32  C12 <0> d   1       1.393   0.750   2.862  0.00  0.00     0.015 A 
BRANCH  29  33
ATOM     33  O3  <0> d   1      -1.638  -0.016   5.573  0.00  0.00    -0.353 OA
ATOM     34  C17 <0> d   1      -2.655  -0.937   5.174  0.00  0.00     0.210 C 
ENDBRANCH  29  33
BRANCH  30  35
ATOM     35  O4  <0> d   1       0.384   1.737   6.214  0.00  0.00    -0.353 OA
ATOM     36  C18 <0> d   1       1.464   2.634   6.481  0.00  0.00     0.210 C 
ENDBRANCH  30  35
ENDBRANCH  12  27
TORSDOF 10
