REMARK  4 active torsions:
REMARK  status: ('A' for Active; 'I' for Inactive)
REMARK    1  A    between atoms: O1_2  and  C2_3 
REMARK    2  A    between atoms: C6_7  and  C8_9 
REMARK    3  A    between atoms: C15_17  and  C17_20 
REMARK    4  A    between atoms: C17_20  and  N1_21 
ROOT
ATOM      1  C8  <0> d   1       3.651   2.163  -0.021  0.00  0.00     0.053 C 
ATOM      2  C9  <0> d   1       3.634   3.515  -0.116  0.00  0.00     0.127 A 
ATOM      3  C10 <0> d   1       4.809   4.394  -0.233  0.00  0.00     0.218 A 
ATOM      4  O2  <0> d   1       5.983   4.070  -0.265  0.00  0.00    -0.284 OA
ATOM      5  C11 <0> d   1       4.246   5.755  -0.305  0.00  0.00     0.051 A 
ATOM      6  C12 <0> d   1       4.821   7.021  -0.425  0.00  0.00     0.021 A 
ATOM      7  C13 <0> d   1       4.025   8.130  -0.461  0.00  0.00     0.041 A 
ATOM      8  C14 <0> d   1       2.641   8.000  -0.381  0.00  0.00     0.118 A 
ATOM      9  C15 <0> d   1       2.056   6.750  -0.262  0.00  0.00     0.041 A 
ATOM     10  C16 <0> d   1       2.852   5.612  -0.223  0.00  0.00     0.101 A 
ATOM     11  O3  <0> d   1       2.533   4.303  -0.114  0.00  0.00    -0.305 OA
ATOM     12  O5  <0> d   1       1.858   9.108  -0.418  0.00  0.00    -0.191 OA
ENDROOT
BRANCH   1  13
ATOM     13  C6  <0> d   1       2.389   1.410  -0.020  0.00  0.00    -0.031 A 
ATOM     14  C5  <0> d   1       2.405   0.011  -0.051  0.00  0.00     0.011 A 
ATOM     15  C4  <0> d   1       1.218  -0.691  -0.051  0.00  0.00     0.004 A 
ATOM     16  C3  <0> d   1       0.010  -0.018  -0.021  0.00  0.00     0.037 A 
ATOM     17  C2  <0> d   1      -0.018   1.371   0.010  0.00  0.00     0.069 A 
ATOM     18  C7  <0> d   1       1.166   2.088   0.010  0.00  0.00     0.048 A 
BRANCH  17  19
ATOM     19  O1  <0> d   1      -1.208   2.026   0.039  0.00  0.00    -0.356 OA
ATOM     20  C1  <0> d   1      -2.390   1.223   0.036  0.00  0.00     0.210 C 
ENDBRANCH  17  19
ENDBRANCH   1  13
BRANCH   9  21
ATOM     21  C17 <0> d   1       0.557   6.625  -0.175  0.00  0.00     0.317 C 
BRANCH  21  22
ATOM     22  N1  <0> d   1       0.141   6.682   1.233  0.00  0.00     0.097 N 
ATOM     23  C21 <0> d   1      -1.319   6.802   1.347  0.00  0.00     0.299 C 
ATOM     24  C20 <0> d   1      -1.703   6.918   2.825  0.00  0.00     0.198 C 
ATOM     25  O4  <0> d   1      -1.196   5.785   3.534  0.00  0.00    -0.388 OA
ATOM     26  C19 <0> d   1       0.224   5.638   3.445  0.00  0.00     0.198 C 
ATOM     27  C18 <0> d   1       0.627   5.509   1.974  0.00  0.00     0.299 C 
ENDBRANCH  21  22
ENDBRANCH   9  21
TORSDOF 4
