REMARK  3 active torsions:
REMARK  status: ('A' for Active; 'I' for Inactive)
REMARK    1  A    between atoms: C3_3  and  O3_21 
REMARK    2  A    between atoms: C10_12  and  C11_13 
REMARK    3  A    between atoms: C11_13  and  N1_14 
ROOT
ATOM      1  C1  <0> d   1       6.205  -2.620  -1.362  0.00  0.00     0.054 C 
ATOM      2  C2  <0> d   1       4.830  -3.235  -1.306  0.00  0.00     0.006 A 
ATOM      3  C3  <0> d   1       4.614  -4.501  -1.825  0.00  0.00     0.074 A 
ATOM      4  C4  <0> d   1       3.346  -5.079  -1.777  0.00  0.00     0.038 A 
ATOM      5  C5  <0> d   1       2.300  -4.404  -1.218  0.00  0.00     0.017 A 
ATOM      6  C6  <0> d   1       2.501  -3.124  -0.690  0.00  0.00     0.007 A 
ATOM      7  C7  <0> d   1       3.778  -2.535  -0.735  0.00  0.00     0.099 A 
ATOM      8  O1  <0> d   1       3.968  -1.300  -0.224  0.00  0.00    -0.274 OA
ATOM      9  C8  <0> d   1       2.960  -0.609   0.331  0.00  0.00     0.288 A 
ATOM     10  O2  <0> d   1       3.178   0.502   0.779  0.00  0.00    -0.260 OA
ATOM     11  C9  <0> d   1       1.655  -1.138   0.411  0.00  0.00     0.092 A 
ATOM     12  C10 <0> d   1       1.396  -2.376  -0.084  0.00  0.00    -0.011 A 
ENDROOT
BRANCH  12  13
ATOM     13  C11 <0> d   1       0.011  -2.965  -0.013  0.00  0.00     0.312 C 
BRANCH  13  14
ATOM     14  N1  <0> d   1      -0.608  -2.923  -1.345  0.00  0.00     0.096 N 
ATOM     15  C15 <0> d   1      -1.781  -3.805  -1.408  0.00  0.00     0.303 C 
ATOM     16  C14 <0> d   1      -2.348  -3.794  -2.830  0.00  0.00     0.302 C 
ATOM     17  N2  <0> d   1      -2.707  -2.418  -3.201  0.00  0.00     0.087 N 
ATOM     18  C13 <0> d   1      -1.534  -1.536  -3.137  0.00  0.00     0.302 C 
ATOM     19  C16 <0> d   1      -3.326  -2.377  -4.532  0.00  0.00     0.310 C 
ATOM     20  C12 <0> d   1      -0.967  -1.547  -1.716  0.00  0.00     0.303 C 
ENDBRANCH  13  14
ENDBRANCH  12  13
BRANCH   3  21
ATOM     21  O3  <0> d   1       5.644  -5.185  -2.384  0.00  0.00    -0.360 OA
ATOM     22  H20 <0> d   1       5.477  -6.191  -2.797  0.00  0.00     0.217 HD
ENDBRANCH   3  21
TORSDOF 3
