REMARK  5 active torsions:
REMARK  status: ('A' for Active; 'I' for Inactive)
REMARK    1  A    between atoms: C2_2  and  N1_3 
REMARK    2  A    between atoms: N2_6  and  C7_9 
REMARK    3  A    between atoms: C7_9  and  C8_10 
REMARK    4  A    between atoms: C9_11  and  O4_32 
REMARK    5  A    between atoms: C15_18  and  C16_19 
ROOT
ATOM      1  C8  <0> d   1       3.317  -3.984  -3.871  0.00  0.00     0.038 A 
ATOM      2  C9  <0> d   1       4.368  -4.666  -3.280  0.00  0.00     0.077 A 
ATOM      3  C10 <0> d   1       4.399  -6.057  -3.280  0.00  0.00     0.045 A 
ATOM      4  C11 <0> d   1       3.389  -6.766  -3.867  0.00  0.00    -0.042 A 
ATOM      5  C12 <0> d   1       2.324  -6.093  -4.466  0.00  0.00     0.057 A 
ATOM      6  C13 <0> d   1       2.279  -4.689  -4.466  0.00  0.00     0.102 A 
ATOM      7  O1  <0> d   1       1.158  -4.271  -5.094  0.00  0.00    -0.305 OA
ATOM      8  C14 <0> d   1       0.409  -5.310  -5.531  0.00  0.00     0.129 A 
ATOM      9  C15 <0> d   1      -0.776  -5.222  -6.198  0.00  0.00     0.078 C 
ATOM     10  C24 <0> d   1       1.109  -6.548  -5.166  0.00  0.00     0.219 A 
ATOM     11  O3  <0> d   1       0.758  -7.695  -5.382  0.00  0.00    -0.284 OA
ATOM     12  C25 <0> d   1       3.425  -8.273  -3.867  0.00  0.00     0.049 C 
ENDROOT
BRANCH   9  13
ATOM     13  C16 <0> d   1      -1.330  -3.954  -6.494  0.00  0.00     0.079 A 
ATOM     14  O2  <0> d   1      -0.778  -2.765  -6.165  0.00  0.00    -0.310 OA
ATOM     15  C23 <0> d   1      -1.565  -1.759  -6.599  0.00  0.00     0.086 A 
ATOM     16  C18 <0> d   1      -2.683  -2.336  -7.231  0.00  0.00     0.002 A 
ATOM     17  C22 <0> d   1      -1.463  -0.376  -6.528  0.00  0.00     0.039 A 
ATOM     18  C17 <0> d   1      -2.506  -3.741  -7.149  0.00  0.00     0.051 A 
ATOM     19  C19 <0> d   1      -3.676  -1.516  -7.777  0.00  0.00     0.033 A 
ATOM     20  C20 <0> d   1      -3.555  -0.157  -7.694  0.00  0.00     0.011 A 
ATOM     21  C21 <0> d   1      -2.453   0.415  -7.072  0.00  0.00     0.022 A 
ATOM     22 Br1  <0> d   1      -4.897   0.951  -8.432  0.00  0.00    -0.051 Br
ENDBRANCH   9  13
BRANCH   1  23
ATOM     23  C7  <0> d   1       3.296  -2.477  -3.863  0.00  0.00     0.317 C 
BRANCH  23  24
ATOM     24  N2  <0> d   1       2.609  -2.003  -2.654  0.00  0.00     0.096 N 
ATOM     25  C4  <0> d   1       2.774  -0.552  -2.489  0.00  0.00     0.303 C 
ATOM     26  C3  <0> d   1       2.113  -0.112  -1.180  0.00  0.00     0.302 C 
ATOM     27  N1  <0> d   1       0.690  -0.478  -1.207  0.00  0.00     0.091 N 
ATOM     28  C6  <0> d   1       0.525  -1.929  -1.372  0.00  0.00     0.302 C 
ATOM     29  C5  <0> d   1       1.186  -2.369  -2.680  0.00  0.00     0.303 C 
BRANCH  27  30
ATOM     30  C2  <0> d   1       0.002  -0.004   0.002  0.00  0.00     0.268 C 
ATOM     31  C1  <0> d   1      -0.019   1.526   0.010  0.00  0.00     0.037 C 
ENDBRANCH  27  30
ENDBRANCH  23  24
ENDBRANCH   1  23
BRANCH   2  32
ATOM     32  O4  <0> d   1       5.377  -3.971  -2.695  0.00  0.00    -0.360 OA
ATOM     33  H25 <0> d   1       5.231  -3.779  -1.758  0.00  0.00     0.217 HD
ENDBRANCH   2  32
TORSDOF 5
