REMARK  3 active torsions:
REMARK  status: ('A' for Active; 'I' for Inactive)
REMARK    1  A    between atoms: O1_2  and  C2_3 
REMARK    2  A    between atoms: C5_6  and  C8_10 
REMARK    3  A    between atoms: C9_11  and  C11_16 
ROOT
ATOM      1  C8  <0> d   1      -4.974  -2.640   0.241  0.00  0.00     0.102 A 
ATOM      2  C9  <0> d   1      -5.183  -4.009  -0.064  0.00  0.00     0.022 A 
ATOM      3  C10 <0> d   1      -6.525  -4.196  -0.212  0.00  0.00     0.124 A 
ATOM      4  N1  <0> d   1      -7.132  -3.008  -0.011  0.00  0.00    -0.288 N 
ATOM      5  N2  <0> d   1      -6.150  -2.052   0.274  0.00  0.00    -0.174 NA
ATOM      6  H1  <0> d   1      -8.087  -2.845  -0.055  0.00  0.00     0.188 HD
ENDROOT
BRANCH   1   7
ATOM      7  C5  <0> d   1      -3.664  -1.990   0.484  0.00  0.00     0.032 A 
ATOM      8  C4  <0> d   1      -2.741  -2.580   1.345  0.00  0.00     0.019 A 
ATOM      9  C3  <0> d   1      -1.523  -1.973   1.570  0.00  0.00     0.038 A 
ATOM     10  C2  <0> d   1      -1.214  -0.774   0.940  0.00  0.00     0.070 A 
ATOM     11  C7  <0> d   1      -2.130  -0.177   0.087  0.00  0.00     0.077 A 
ATOM     12  C6  <0> d   1      -3.352  -0.782  -0.149  0.00  0.00     0.122 A 
ATOM     13  O2  <0> d   1      -4.249  -0.203  -0.990  0.00  0.00    -0.191 OA
BRANCH  10  14
ATOM     14  O1  <0> d   1      -0.012  -0.180   1.166  0.00  0.00    -0.356 OA
ATOM     15  C1  <0> d   1       0.884  -0.849   2.056  0.00  0.00     0.210 C 
ENDBRANCH  10  14
ENDBRANCH   1   7
BRANCH   2  16
ATOM     16  C11 <0> d   1      -4.133  -5.049  -0.198  0.00  0.00    -0.022 A 
ATOM     17  C16 <0> d   1      -4.196  -6.210   0.570  0.00  0.00     0.014 A 
ATOM     18  C15 <0> d   1      -3.220  -7.176   0.437  0.00  0.00     0.024 A 
ATOM     19  C14 <0> d   1      -2.172  -6.988  -0.447  0.00  0.00     0.034 A 
ATOM     20  C13 <0> d   1      -2.101  -5.834  -1.208  0.00  0.00     0.024 A 
ATOM     21 Cl1  <0> d   1      -0.943  -8.204  -0.604  0.00  0.00    -0.084 Cl
ATOM     22  C12 <0> d   1      -3.076  -4.864  -1.087  0.00  0.00     0.014 A 
ENDBRANCH   2  16
TORSDOF 3
