REMARK  5 active torsions:
REMARK  status: ('A' for Active; 'I' for Inactive)
REMARK    1  A    between atoms: C2_2  and  C3_3 
REMARK    2  A    between atoms: C6_6  and  C12_15 
REMARK    3  A    between atoms: C11_13  and  O3_14 
REMARK    4  A    between atoms: C12_15  and  N1_16 
REMARK    5  A    between atoms: N2_19  and  C17_22 
ROOT
ATOM      1  C3  <0> d   1       0.707  -0.490  -1.238  0.00  0.00    -0.024 A 
ATOM      2  C4  <0> d   1       2.008  -0.898  -1.162  0.00  0.00     0.024 A 
ATOM      3  C5  <0> d   1       2.663  -1.349  -2.313  0.00  0.00     0.007 A 
ATOM      4  C6  <0> d   1       4.057  -1.794  -2.262  0.00  0.00    -0.014 A 
ATOM      5  C7  <0> d   1       4.637  -2.221  -3.414  0.00  0.00     0.092 A 
ATOM      6  C8  <0> d   1       3.895  -2.227  -4.613  0.00  0.00     0.288 A 
ATOM      7  O1  <0> d   1       4.428  -2.613  -5.638  0.00  0.00    -0.260 OA
ATOM      8  O2  <0> d   1       2.617  -1.819  -4.653  0.00  0.00    -0.275 OA
ATOM      9  C9  <0> d   1       1.982  -1.382  -3.545  0.00  0.00     0.093 A 
ATOM     10  C10 <0> d   1       0.661  -0.963  -3.604  0.00  0.00     0.075 A 
ATOM     11  C11 <0> d   1       0.026  -0.525  -2.453  0.00  0.00     0.074 A 
ENDROOT
BRANCH   4  12
ATOM     12  C12 <0> d   1       4.828  -1.777  -0.967  0.00  0.00     0.274 C 
BRANCH  12  13
ATOM     13  N1  <0> d   1       5.402  -0.441  -0.756  0.00  0.00    -0.064 N 
ATOM     14  C16 <0> d   1       6.051  -0.390   0.560  0.00  0.00     0.265 C 
ATOM     15  C15 <0> d   1       6.632   1.008   0.789  0.00  0.00     0.300 C 
ATOM     16  N2  <0> d   1       7.606   1.309  -0.269  0.00  0.00     0.091 N 
ATOM     17  C14 <0> d   1       6.976   1.237  -1.595  0.00  0.00     0.300 C 
ATOM     18  C13 <0> d   1       6.393  -0.162  -1.804  0.00  0.00     0.265 C 
ATOM     19  H25 <0> d   1       4.667   0.250  -0.796  0.00  0.00     0.280 HD
BRANCH  16  20
ATOM     20  C17 <0> d   1       8.229   2.621  -0.053  0.00  0.00     0.268 C 
ATOM     21  C18 <0> d   1       9.081   2.579   1.217  0.00  0.00     0.037 C 
ENDBRANCH  16  20
ENDBRANCH  12  13
ENDBRANCH   4  12
BRANCH   1  22
ATOM     22  C2  <0> d   1       0.002  -0.004   0.002  0.00  0.00     0.037 C 
ATOM     23  C1  <0> d   1      -0.019   1.526   0.010  0.00  0.00     0.010 C 
ENDBRANCH   1  22
BRANCH  11  24
ATOM     24  O3  <0> d   1      -1.268  -0.121  -2.510  0.00  0.00    -0.360 OA
ATOM     25  H9  <0> d   1      -1.379   0.820  -2.700  0.00  0.00     0.217 HD
ENDBRANCH  11  24
TORSDOF 5
