REMARK  9 active torsions:
REMARK  status: ('A' for Active; 'I' for Inactive)
REMARK    1  A    between atoms: O1_2  and  C2_3 
REMARK    2  A    between atoms: C7_8  and  C8_9 
REMARK    3  A    between atoms: C9_10  and  C12_19 
REMARK    4  A    between atoms: C10_14  and  C11_15 
REMARK    5  A    between atoms: C15_22  and  O3_26 
REMARK    6  A    between atoms: C17_24  and  O2_25 
REMARK    7  A    between atoms: O3_26  and  C18_27 
REMARK    8  A    between atoms: C18_27  and  C19_28 
REMARK       I    between atoms: C19_28  and  N3_30 
REMARK    9  A    between atoms: N3_30  and  N4_31 
ROOT
ATOM      1  C8  <0> d   1       0.063  -2.830  -0.054  0.00  0.00     0.041 A 
ATOM      2  C9  <0> d   1      -1.269  -3.313  -0.011  0.00  0.00     0.103 A 
ATOM      3  N1  <0> d   1      -1.411  -4.004   1.099  0.00  0.00    -0.173 NA
ATOM      4  N2  <0> d   1      -0.194  -3.986   1.790  0.00  0.00    -0.272 N 
ATOM      5  H1  <0> d   1      -0.019  -4.418   2.641  0.00  0.00     0.189 HD
ATOM      6  C10 <0> d   1       0.695  -3.270   1.071  0.00  0.00     0.147 A 
ENDROOT
BRANCH   2   7
ATOM      7  C12 <0> d   1      -2.316  -3.079  -1.034  0.00  0.00     0.029 A 
ATOM      8  C17 <0> d   1      -3.596  -3.618  -0.865  0.00  0.00     0.081 A 
ATOM      9  C16 <0> d   1      -4.570  -3.392  -1.822  0.00  0.00     0.074 A 
ATOM     10  C15 <0> d   1      -4.274  -2.643  -2.950  0.00  0.00     0.072 A 
ATOM     11  C14 <0> d   1      -3.002  -2.113  -3.123  0.00  0.00     0.038 A 
ATOM     12  C13 <0> d   1      -2.026  -2.328  -2.172  0.00  0.00     0.019 A 
BRANCH   8  13
ATOM     13  O2  <0> d   1      -3.883  -4.356   0.239  0.00  0.00    -0.360 OA
ATOM     14  H12 <0> d   1      -4.218  -3.837   0.983  0.00  0.00     0.217 HD
ENDBRANCH   8  13
BRANCH  10  15
ATOM     15  O3  <0> d   1      -5.231  -2.427  -3.891  0.00  0.00    -0.342 OA
BRANCH  15  16
ATOM     16  C18 <0> d   1      -4.858  -1.647  -5.028  0.00  0.00     0.279 C 
BRANCH  16  17
ATOM     17  C19 <0> d   1      -6.039  -1.514  -5.955  0.00  0.00     0.255 C 
ATOM     18  O4  <0> d   1      -7.095  -2.036  -5.670  0.00  0.00    -0.270 OA
ATOM     19  N3  <0> d   1      -5.920  -0.815  -7.101  0.00  0.00    -0.292 N 
ATOM     20  H15 <0> d   1      -5.075  -0.397  -7.330  0.00  0.00     0.183 HD
BRANCH  19  21
ATOM     21  N4  <0> d   1      -6.991  -0.695  -7.941  0.00  0.00    -0.247 NA
ATOM     22  H16 <0> d   1      -7.786  -0.301  -7.460  0.00  0.00     0.143 HD
ATOM     23  H17 <0> d   1      -6.753  -0.146  -8.754  0.00  0.00     0.143 HD
ENDBRANCH  19  21
ENDBRANCH  16  17
ENDBRANCH  15  16
ENDBRANCH  10  15
ENDBRANCH   2   7
BRANCH   1  24
ATOM     24  C7  <0> d   1       0.662  -2.002  -1.129  0.00  0.00     0.012 A 
ATOM     25  C2  <0> d   1       0.606  -0.607  -1.056  0.00  0.00     0.079 A 
ATOM     26  C3  <0> d   1       1.173   0.158  -2.062  0.00  0.00     0.037 A 
ATOM     27  C4  <0> d   1       1.787  -0.456  -3.137  0.00  0.00     0.003 A 
ATOM     28  C5  <0> d   1       1.839  -1.836  -3.215  0.00  0.00     0.001 A 
ATOM     29  C6  <0> d   1       1.278  -2.611  -2.220  0.00  0.00     0.015 A 
BRANCH  25  30
ATOM     30  O1  <0> d   1       0.002  -0.004   0.002  0.00  0.00    -0.355 OA
ATOM     31  C1  <0> d   1      -0.017   1.425   0.010  0.00  0.00     0.210 C 
ENDBRANCH  25  30
ENDBRANCH   1  24
BRANCH   6  32
ATOM     32  C11 <0> d   1       2.129  -3.001   1.446  0.00  0.00     0.434 C 
ATOM     33  F1  <0> d   1       2.414  -3.616   2.669  0.00  0.00    -0.165 F 
ATOM     34  F2  <0> d   1       2.974  -3.517   0.456  0.00  0.00    -0.165 F 
ATOM     35  F3  <0> d   1       2.332  -1.622   1.559  0.00  0.00    -0.165 F 
ENDBRANCH   6  32
TORSDOF 9
