REMARK  4 active torsions:
REMARK  status: ('A' for Active; 'I' for Inactive)
REMARK    1  A    between atoms: N2_5  and  C6_8 
REMARK    2  A    between atoms: C6_8  and  C7_9 
REMARK    3  A    between atoms: C8_10  and  O4_30 
REMARK    4  A    between atoms: C14_17  and  C15_18 
ROOT
ATOM      1  C7  <0> d   1       2.188  -4.533   1.006  0.00  0.00     0.038 A 
ATOM      2  C8  <0> d   1       3.528  -4.739   0.722  0.00  0.00     0.076 A 
ATOM      3  C9  <0> d   1       4.398  -5.196   1.708  0.00  0.00     0.038 A 
ATOM      4  C10 <0> d   1       3.936  -5.448   2.969  0.00  0.00     0.021 A 
ATOM      5  C11 <0> d   1       2.588  -5.245   3.268  0.00  0.00     0.051 A 
ATOM      6  C12 <0> d   1       1.702  -4.778   2.284  0.00  0.00     0.101 A 
ATOM      7  O1  <0> d   1       0.464  -4.654   2.809  0.00  0.00    -0.305 OA
ATOM      8  C13 <0> d   1       0.434  -5.006   4.115  0.00  0.00     0.129 A 
ATOM      9  C14 <0> d   1      -0.660  -4.992   4.927  0.00  0.00     0.078 C 
ATOM     10  C23 <0> d   1       1.791  -5.417   4.497  0.00  0.00     0.218 A 
ATOM     11  O3  <0> d   1       2.175  -5.801   5.588  0.00  0.00    -0.284 OA
ENDROOT
BRANCH   9  12
ATOM     12  C15 <0> d   1      -1.915  -4.580   4.417  0.00  0.00     0.079 A 
ATOM     13  O2  <0> d   1      -2.149  -4.181   3.148  0.00  0.00    -0.310 OA
ATOM     14  C22 <0> d   1      -3.451  -3.862   3.001  0.00  0.00     0.086 A 
ATOM     15  C17 <0> d   1      -4.080  -4.060   4.245  0.00  0.00     0.002 A 
ATOM     16  C21 <0> d   1      -4.202  -3.409   1.923  0.00  0.00     0.039 A 
ATOM     17  C16 <0> d   1      -3.075  -4.520   5.132  0.00  0.00     0.051 A 
ATOM     18  C18 <0> d   1      -5.448  -3.800   4.384  0.00  0.00     0.033 A 
ATOM     19  C19 <0> d   1      -6.166  -3.354   3.310  0.00  0.00     0.011 A 
ATOM     20  C20 <0> d   1      -5.548  -3.158   2.082  0.00  0.00     0.022 A 
ATOM     21 Br1  <0> d   1      -8.015  -3.001   3.498  0.00  0.00    -0.051 Br
ENDBRANCH   9  12
BRANCH   1  22
ATOM     22  C6  <0> d   1       1.257  -4.037  -0.071  0.00  0.00     0.317 C 
BRANCH  22  23
ATOM     23  N2  <0> d   1       1.237  -2.568  -0.063  0.00  0.00     0.096 N 
ATOM     24  C3  <0> d   1       0.533  -2.045  -1.242  0.00  0.00     0.303 C 
ATOM     25  C2  <0> d   1       0.603  -0.516  -1.238  0.00  0.00     0.302 C 
ATOM     26  N1  <0> d   1       0.002  -0.004   0.002  0.00  0.00     0.087 N 
ATOM     27  C1  <0> d   1      -0.018   1.465   0.010  0.00  0.00     0.310 C 
ATOM     28  C5  <0> d   1       0.706  -0.528   1.181  0.00  0.00     0.302 C 
ATOM     29  C4  <0> d   1       0.636  -2.057   1.176  0.00  0.00     0.303 C 
ENDBRANCH  22  23
ENDBRANCH   1  22
BRANCH   2  30
ATOM     30  O4  <0> d   1       3.997  -4.492  -0.528  0.00  0.00    -0.360 OA
ATOM     31  H21 <0> d   1       4.310  -3.587  -0.659  0.00  0.00     0.217 HD
ENDBRANCH   2  30
TORSDOF 4
