REMARK  12 active torsions:
REMARK  status: ('A' for Active; 'I' for Inactive)
REMARK    1  A    between atoms: C2_2  and  C3_3 
REMARK    2  A    between atoms: C3_3  and  C4_4 
REMARK    3  A    between atoms: C4_4  and  N1_5 
REMARK    4  A    between atoms: N1_5  and  C5_6 
REMARK    5  A    between atoms: N1_5  and  C9_10 
REMARK    6  A    between atoms: C5_6  and  C6_7 
REMARK    7  A    between atoms: C6_7  and  C7_8 
REMARK    8  A    between atoms: C9_10  and  C10_11 
REMARK    9  A    between atoms: C11_12  and  O4_35 
REMARK   10  A    between atoms: C17_19  and  C18_20 
REMARK   11  A    between atoms: N2_22  and  C27_31 
REMARK   12  A    between atoms: C23_26  and  O2_29 
ROOT
ATOM      1  C10 <0> d   1      -0.486   0.038   0.480  0.00  0.00     0.036 A 
ATOM      2  C11 <0> d   1       0.752  -0.555   0.671  0.00  0.00     0.076 A 
ATOM      3  C12 <0> d   1       1.879   0.224   0.916  0.00  0.00     0.038 A 
ATOM      4  C13 <0> d   1       1.776   1.586   0.971  0.00  0.00     0.021 A 
ATOM      5  C14 <0> d   1       0.537   2.196   0.781  0.00  0.00     0.051 A 
ATOM      6  C15 <0> d   1      -0.607   1.420   0.533  0.00  0.00     0.101 A 
ATOM      7  O1  <0> d   1      -1.667   2.243   0.381  0.00  0.00    -0.305 OA
ATOM      8  C16 <0> d   1      -1.308   3.542   0.521  0.00  0.00     0.128 A 
ATOM      9  C17 <0> d   1      -2.146   4.613   0.428  0.00  0.00     0.055 C 
ATOM     10  C29 <0> d   1       0.087   3.599   0.776  0.00  0.00     0.218 A 
ATOM     11  O3  <0> d   1       0.768   4.596   0.953  0.00  0.00    -0.284 OA
ENDROOT
BRANCH   9  12
ATOM     12  C18 <0> d   1      -3.568   4.408   0.161  0.00  0.00    -0.005 A 
ATOM     13  C21 <0> d   1      -4.604   5.451   0.036  0.00  0.00     0.005 A 
ATOM     14  C20 <0> d   1      -5.806   4.773  -0.222  0.00  0.00     0.045 A 
ATOM     15  C22 <0> d   1      -4.587   6.841   0.109  0.00  0.00     0.051 A 
ATOM     16  N2  <0> d   1      -5.528   3.419  -0.244  0.00  0.00    -0.356 N 
ATOM     17  C25 <0> d   1      -6.979   5.502  -0.393  0.00  0.00     0.033 A 
ATOM     18  C19 <0> d   1      -4.210   3.201  -0.019  0.00  0.00     0.103 A 
ATOM     19  C24 <0> d   1      -6.953   6.877  -0.315  0.00  0.00     0.039 A 
ATOM     20  C23 <0> d   1      -5.761   7.550  -0.064  0.00  0.00     0.069 A 
BRANCH  16  21
ATOM     21  C27 <0> d   1      -6.520   2.367  -0.478  0.00  0.00     0.124 C 
ATOM     22  C28 <0> d   1      -6.702   2.164  -1.984  0.00  0.00     0.027 C 
ENDBRANCH  16  21
BRANCH  20  23
ATOM     23  O2  <0> d   1      -5.752   8.907   0.011  0.00  0.00    -0.356 OA
ATOM     24  C26 <0> d   1      -7.000   9.576  -0.177  0.00  0.00     0.210 C 
ENDBRANCH  20  23
ENDBRANCH   9  12
BRANCH   1  25
ATOM     25  C9  <0> d   1      -1.699  -0.816   0.215  0.00  0.00     0.279 C 
BRANCH  25  26
ATOM     26  N1  <0> d   1      -1.948  -0.877  -1.232  0.00  0.00    -0.067 N 
ATOM     27  H36 <0> d   1      -1.805   0.134  -1.642  0.00  0.00     0.280 HD
BRANCH  26  28
ATOM     28  C4  <0> d   1      -0.991  -1.773  -1.894  0.00  0.00     0.235 C 
BRANCH  28  29
ATOM     29  C3  <0> d   1      -1.090  -1.595  -3.410  0.00  0.00     0.027 C 
BRANCH  29  30
ATOM     30  C2  <0> d   1      -0.093  -2.528  -4.100  0.00  0.00    -0.003 C 
ATOM     31  C1  <0> d   1      -0.191  -2.349  -5.616  0.00  0.00     0.005 C 
ENDBRANCH  29  30
ENDBRANCH  28  29
ENDBRANCH  26  28
BRANCH  26  32
ATOM     32  C5  <0> d   1      -3.332  -1.285  -1.511  0.00  0.00     0.235 C 
BRANCH  32  33
ATOM     33  C6  <0> d   1      -3.599  -2.650  -0.874  0.00  0.00     0.027 C 
BRANCH  33  34
ATOM     34  C7  <0> d   1      -5.033  -3.085  -1.182  0.00  0.00    -0.003 C 
ATOM     35  C8  <0> d   1      -5.300  -4.450  -0.545  0.00  0.00     0.005 C 
ENDBRANCH  33  34
ENDBRANCH  32  33
ENDBRANCH  26  32
ENDBRANCH  25  26
ENDBRANCH   1  25
BRANCH   2  36
ATOM     36  O4  <0> d   1       0.866  -1.907   0.618  0.00  0.00    -0.360 OA
ATOM     37  H37 <0> d   1       1.846  -2.382   0.769  0.00  0.00     0.217 HD
ENDBRANCH   2  36
TORSDOF 12
