REMARK  5 active torsions:
REMARK  status: ('A' for Active; 'I' for Inactive)
REMARK    1  A    between atoms: N1_6  and  C7_8 
REMARK    2  A    between atoms: C7_8  and  C8_9 
REMARK    3  A    between atoms: C9_10  and  O4_32 
REMARK    4  A    between atoms: C15_17  and  C16_18 
REMARK    5  A    between atoms: C21_24  and  O2_27 
ROOT
ATOM      1  C8  <0> d   1      -0.658   1.666   3.644  0.00  0.00     0.036 A 
ATOM      2  C9  <0> d   1      -0.029   2.788   4.158  0.00  0.00     0.076 A 
ATOM      3  C10 <0> d   1      -0.539   3.435   5.280  0.00  0.00     0.038 A 
ATOM      4  C11 <0> d   1      -1.664   2.961   5.894  0.00  0.00     0.021 A 
ATOM      5  C12 <0> d   1      -2.306   1.830   5.392  0.00  0.00     0.051 A 
ATOM      6  C13 <0> d   1      -1.802   1.173   4.257  0.00  0.00     0.101 A 
ATOM      7  O1  <0> d   1      -2.596   0.117   3.977  0.00  0.00    -0.305 OA
ATOM      8  C14 <0> d   1      -3.617   0.018   4.861  0.00  0.00     0.128 A 
ATOM      9  C15 <0> d   1      -4.588  -0.938   4.851  0.00  0.00     0.055 C 
ATOM     10  C26 <0> d   1      -3.504   1.077   5.801  0.00  0.00     0.218 A 
ATOM     11  O3  <0> d   1      -4.241   1.312   6.744  0.00  0.00    -0.284 OA
ENDROOT
BRANCH   9  12
ATOM     12  C16 <0> d   1      -4.584  -1.974   3.821  0.00  0.00    -0.005 A 
ATOM     13  C19 <0> d   1      -5.556  -3.074   3.668  0.00  0.00     0.005 A 
ATOM     14  C18 <0> d   1      -5.140  -3.803   2.543  0.00  0.00     0.045 A 
ATOM     15  C20 <0> d   1      -6.690  -3.464   4.375  0.00  0.00     0.051 A 
ATOM     16  N2  <0> d   1      -4.002  -3.197   2.046  0.00  0.00    -0.360 N 
ATOM     17  C23 <0> d   1      -5.871  -4.918   2.143  0.00  0.00     0.033 A 
ATOM     18  C17 <0> d   1      -3.675  -2.115   2.795  0.00  0.00     0.103 A 
ATOM     19  C25 <0> d   1      -3.256  -3.656   0.872  0.00  0.00     0.156 C 
ATOM     20  C22 <0> d   1      -6.992  -5.296   2.848  0.00  0.00     0.039 A 
ATOM     21  C21 <0> d   1      -7.404  -4.574   3.963  0.00  0.00     0.069 A 
BRANCH  21  22
ATOM     22  O2  <0> d   1      -8.512  -4.960   4.650  0.00  0.00    -0.356 OA
ATOM     23  C24 <0> d   1      -9.203  -6.116   4.170  0.00  0.00     0.210 C 
ENDBRANCH  21  22
ENDBRANCH   9  12
BRANCH   1  24
ATOM     24  C7  <0> d   1      -0.099   0.979   2.425  0.00  0.00     0.279 C 
BRANCH  24  25
ATOM     25  N1  <0> d   1      -0.700   1.559   1.216  0.00  0.00    -0.066 N 
ATOM     26  C5  <0> d   1      -0.705   3.026   1.284  0.00  0.00     0.239 C 
ATOM     27  C4  <0> d   1      -1.465   3.591   0.082  0.00  0.00     0.008 C 
ATOM     28  C3  <0> d   1      -0.788   3.123  -1.209  0.00  0.00     0.011 C 
ATOM     29  C27 <0> d   1      -1.452   5.120   0.141  0.00  0.00     0.011 C 
ATOM     30  C2  <0> d   1      -0.752   1.593  -1.232  0.00  0.00     0.008 C 
ATOM     31  C1  <0> d   1      -0.024   1.117  -2.491  0.00  0.00     0.011 C 
ATOM     32  C6  <0> d   1      -0.013   1.086   0.008  0.00  0.00     0.239 C 
ATOM     33  H30 <0> d   1      -1.745   1.222   1.161  0.00  0.00     0.280 HD
ENDBRANCH  24  25
ENDBRANCH   1  24
BRANCH   2  34
ATOM     34  O4  <0> d   1       1.093   3.264   3.559  0.00  0.00    -0.360 OA
ATOM     35  H31 <0> d   1       1.597   4.155   3.963  0.00  0.00     0.217 HD
ENDBRANCH   2  34
TORSDOF 5
