REMARK  9 active torsions:
REMARK  status: ('A' for Active; 'I' for Inactive)
REMARK    1  A    between atoms: C2_2  and  C4_4 
REMARK    2  A    between atoms: C4_4  and  O2_6 
REMARK    3  A    between atoms: O2_6  and  C5_7 
REMARK    4  A    between atoms: C5_7  and  C6_8 
REMARK    5  A    between atoms: C6_8  and  C7_9 
REMARK    6  A    between atoms: C6_8  and  O4_24 
REMARK    7  A    between atoms: C7_9  and  N1_10 
REMARK    8  A    between atoms: N2_13  and  C12_16 
REMARK    9  A    between atoms: C15_19  and  O3_22 
ROOT
ATOM      1  N1  <0> d   1      -0.908   1.392   3.629  0.00  0.00    -0.066 N 
ATOM      2  C8  <0> d   1      -0.906   2.855   3.771  0.00  0.00     0.249 C 
ATOM      3  C9  <0> d   1      -1.857   3.257   4.901  0.00  0.00     0.123 C 
ATOM      4  N2  <0> d   1      -1.431   2.609   6.150  0.00  0.00    -0.280 NA
ATOM      5  C10 <0> d   1      -1.434   1.146   6.008  0.00  0.00     0.123 C 
ATOM      6  C11 <0> d   1      -0.483   0.744   4.878  0.00  0.00     0.249 C 
ATOM      7  H27 <0> d   1      -1.939   1.073   3.415  0.00  0.00     0.280 HD
ENDROOT
BRANCH   1   8
ATOM      8  C7  <0> d   1      -0.064   0.971   2.503  0.00  0.00     0.268 C 
BRANCH   8   9
ATOM      9  C6  <0> d   1      -0.454  -0.444   2.074  0.00  0.00     0.168 C 
BRANCH   9  10
ATOM     10  C5  <0> d   1       0.434  -0.888   0.910  0.00  0.00     0.212 C 
BRANCH  10  11
ATOM     11  O2  <0> d   1       0.144  -2.272   0.581  0.00  0.00    -0.315 OA
BRANCH  11  12
ATOM     12  C4  <0> d   1       0.847  -2.820  -0.431  0.00  0.00     0.288 C 
ATOM     13  O1  <0> d   1       1.678  -2.159  -1.022  0.00  0.00    -0.260 OA
BRANCH  12  14
ATOM     14  C2  <0> d   1       0.607  -4.216  -0.820  0.00  0.00     0.004 C 
ATOM     15  C1  <0> d   1      -0.424  -5.036  -0.088  0.00  0.00     0.054 C 
ATOM     16  C3  <0> d   1       1.300  -4.757  -1.819  0.00  0.00     0.024 C 
ENDBRANCH  12  14
ENDBRANCH  11  12
ENDBRANCH  10  11
ENDBRANCH   9  10
BRANCH   9  17
ATOM     17  O4  <0> d   1      -1.822  -0.457   1.661  0.00  0.00    -0.392 OA
ATOM     18  H26 <0> d   1      -2.613  -0.166   2.369  0.00  0.00     0.210 HD
ENDBRANCH   9  17
ENDBRANCH   8   9
ENDBRANCH   1   8
BRANCH   4  19
ATOM     19  C12 <0> d   1      -2.236   3.010   7.222  0.00  0.00     0.010 A 
ATOM     20  C17 <0> d   1      -2.368   4.358   7.525  0.00  0.00     0.026 A 
ATOM     21  C16 <0> d   1      -3.162   4.753   8.584  0.00  0.00     0.038 A 
ATOM     22  C15 <0> d   1      -3.828   3.803   9.344  0.00  0.00     0.068 A 
ATOM     23  C14 <0> d   1      -3.696   2.456   9.042  0.00  0.00     0.038 A 
ATOM     24  C13 <0> d   1      -2.907   2.060   7.981  0.00  0.00     0.026 A 
BRANCH  22  25
ATOM     25  O3  <0> d   1      -4.610   4.193  10.386  0.00  0.00    -0.356 OA
ATOM     26  C18 <0> d   1      -5.266   3.162  11.126  0.00  0.00     0.210 C 
ENDBRANCH  22  25
ENDBRANCH   4  19
TORSDOF 9
