REMARK  7 active torsions:
REMARK  status: ('A' for Active; 'I' for Inactive)
REMARK    1  A    between atoms: O1_2  and  C2_3 
REMARK    2  A    between atoms: C6_7  and  C9_11 
REMARK    3  A    between atoms: C7_8  and  O2_9 
REMARK    4  A    between atoms: C16_19  and  C18_22 
REMARK    5  A    between atoms: C18_22  and  N1_23 
REMARK    6  A    between atoms: N2_26  and  C23_29 
REMARK    7  A    between atoms: C23_29  and  C24_30 
ROOT
ATOM      1  C9  <0> d   1      -2.572  -4.139   0.018  0.00  0.00     0.055 C 
ATOM      2  C10 <0> d   1      -3.774  -4.761   0.129  0.00  0.00     0.128 A 
ATOM      3  C11 <0> d   1      -3.995  -6.208   0.253  0.00  0.00     0.218 A 
ATOM      4  O3  <0> d   1      -3.155  -7.092   0.277  0.00  0.00    -0.284 OA
ATOM      5  C12 <0> d   1      -5.459  -6.353   0.342  0.00  0.00     0.051 A 
ATOM      6  C13 <0> d   1      -6.303  -7.457   0.473  0.00  0.00     0.021 A 
ATOM      7  C14 <0> d   1      -7.656  -7.276   0.531  0.00  0.00     0.041 A 
ATOM      8  C15 <0> d   1      -8.194  -5.994   0.460  0.00  0.00     0.118 A 
ATOM      9  C16 <0> d   1      -7.368  -4.889   0.330  0.00  0.00     0.039 A 
ATOM     10  C17 <0> d   1      -5.990  -5.055   0.270  0.00  0.00     0.101 A 
ATOM     11  O4  <0> d   1      -4.986  -4.159   0.152  0.00  0.00    -0.305 OA
ATOM     12  O7  <0> d   1      -9.540  -5.824   0.519  0.00  0.00    -0.191 OA
ENDROOT
BRANCH   9  13
ATOM     13  C18 <0> d   1      -7.964  -3.507   0.254  0.00  0.00     0.279 C 
BRANCH  13  14
ATOM     14  N1  <0> d   1      -8.085  -2.951   1.609  0.00  0.00    -0.064 N 
ATOM     15  C22 <0> d   1      -8.774  -1.655   1.546  0.00  0.00     0.265 C 
ATOM     16  C21 <0> d   1      -8.917  -1.084   2.958  0.00  0.00     0.300 C 
ATOM     17  N2  <0> d   1      -7.583  -0.920   3.554  0.00  0.00     0.095 N 
ATOM     18  C20 <0> d   1      -6.870  -2.205   3.600  0.00  0.00     0.300 C 
ATOM     19  C19 <0> d   1      -6.745  -2.767   2.183  0.00  0.00     0.265 C 
ATOM     20  H30 <0> d   1      -8.614  -3.586   2.187  0.00  0.00     0.280 HD
BRANCH  17  21
ATOM     21  C23 <0> d   1      -7.674  -0.320   4.892  0.00  0.00     0.311 C 
BRANCH  21  22
ATOM     22  C24 <0> d   1      -8.185   1.093   4.775  0.00  0.00    -0.027 A 
ATOM     23  C29 <0> d   1      -9.544   1.341   4.823  0.00  0.00     0.048 A 
ATOM     24  C28 <0> d   1     -10.015   2.640   4.721  0.00  0.00     0.105 A 
ATOM     25  C27 <0> d   1      -9.117   3.692   4.558  0.00  0.00     0.105 A 
ATOM     26  O5  <0> d   1     -11.282   3.147   4.743  0.00  0.00    -0.323 OA
ATOM     27  C26 <0> d   1      -7.757   3.435   4.505  0.00  0.00     0.040 A 
ATOM     28  O6  <0> d   1      -9.822   4.859   4.478  0.00  0.00    -0.323 OA
ATOM     29  C25 <0> d   1      -7.293   2.137   4.613  0.00  0.00     0.012 A 
ATOM     30  C30 <0> d   1     -11.128   4.555   5.002  0.00  0.00     0.352 C 
ENDBRANCH  21  22
ENDBRANCH  17  21
ENDBRANCH  13  14
ENDBRANCH   9  13
BRANCH   1  31
ATOM     31  C6  <0> d   1      -2.500  -2.673   0.021  0.00  0.00     0.003 A 
ATOM     32  C5  <0> d   1      -3.650  -1.912  -0.225  0.00  0.00     0.014 A 
ATOM     33  C4  <0> d   1      -3.578  -0.536  -0.221  0.00  0.00     0.004 A 
ATOM     34  C3  <0> d   1      -2.373   0.101   0.026  0.00  0.00     0.040 A 
ATOM     35  C2  <0> d   1      -1.226  -0.637   0.271  0.00  0.00     0.102 A 
ATOM     36  C7  <0> d   1      -1.279  -2.026   0.264  0.00  0.00     0.111 A 
BRANCH  35  37
ATOM     37  O1  <0> d   1      -0.048  -0.003   0.512  0.00  0.00    -0.353 OA
ATOM     38  C1  <0> d   1      -0.066   1.426   0.504  0.00  0.00     0.210 C 
ENDBRANCH  35  37
BRANCH  36  39
ATOM     39  O2  <0> d   1      -0.156  -2.753   0.498  0.00  0.00    -0.352 OA
ATOM     40  C8  <0> d   1       0.124  -3.097   1.857  0.00  0.00     0.210 C 
ENDBRANCH  36  39
ENDBRANCH   1  31
TORSDOF 7
