REMARK  5 active torsions:
REMARK  status: ('A' for Active; 'I' for Inactive)
REMARK    1  A    between atoms: C2_2  and  N1_3 
REMARK    2  A    between atoms: N2_6  and  C7_9 
REMARK    3  A    between atoms: C7_9  and  C8_10 
REMARK    4  A    between atoms: C9_11  and  O4_30 
REMARK    5  A    between atoms: C15_18  and  C16_19 
ROOT
ATOM      1  C8  <0> d   1       3.317  -3.984  -3.871  0.00  0.00     0.038 A 
ATOM      2  C9  <0> d   1       4.368  -4.666  -3.280  0.00  0.00     0.076 A 
ATOM      3  C10 <0> d   1       4.399  -6.057  -3.280  0.00  0.00     0.038 A 
ATOM      4  C11 <0> d   1       3.389  -6.766  -3.866  0.00  0.00     0.021 A 
ATOM      5  C12 <0> d   1       2.324  -6.093  -4.465  0.00  0.00     0.051 A 
ATOM      6  C13 <0> d   1       2.279  -4.689  -4.466  0.00  0.00     0.101 A 
ATOM      7  O1  <0> d   1       1.158  -4.271  -5.094  0.00  0.00    -0.305 OA
ATOM      8  C14 <0> d   1       0.409  -5.310  -5.531  0.00  0.00     0.129 A 
ATOM      9  C15 <0> d   1      -0.775  -5.222  -6.199  0.00  0.00     0.078 C 
ATOM     10  C24 <0> d   1       1.108  -6.548  -5.164  0.00  0.00     0.218 A 
ATOM     11  O3  <0> d   1       0.756  -7.695  -5.380  0.00  0.00    -0.284 OA
ENDROOT
BRANCH   9  12
ATOM     12  C16 <0> d   1      -1.329  -3.954  -6.495  0.00  0.00     0.079 A 
ATOM     13  O2  <0> d   1      -0.777  -2.765  -6.167  0.00  0.00    -0.310 OA
ATOM     14  C23 <0> d   1      -1.563  -1.759  -6.603  0.00  0.00     0.086 A 
ATOM     15  C18 <0> d   1      -2.681  -2.336  -7.234  0.00  0.00     0.000 A 
ATOM     16  C22 <0> d   1      -1.462  -0.376  -6.531  0.00  0.00     0.038 A 
ATOM     17  C17 <0> d   1      -2.505  -3.741  -7.151  0.00  0.00     0.051 A 
ATOM     18  C19 <0> d   1      -3.674  -1.516  -7.781  0.00  0.00     0.014 A 
ATOM     19  C20 <0> d   1      -3.552  -0.158  -7.699  0.00  0.00     0.001 A 
ATOM     20  C21 <0> d   1      -2.451   0.414  -7.077  0.00  0.00     0.003 A 
ENDBRANCH   9  12
BRANCH   1  21
ATOM     21  C7  <0> d   1       3.296  -2.477  -3.863  0.00  0.00     0.317 C 
BRANCH  21  22
ATOM     22  N2  <0> d   1       2.609  -2.003  -2.654  0.00  0.00     0.096 N 
ATOM     23  C4  <0> d   1       2.774  -0.552  -2.489  0.00  0.00     0.303 C 
ATOM     24  C3  <0> d   1       2.113  -0.112  -1.180  0.00  0.00     0.302 C 
ATOM     25  N1  <0> d   1       0.690  -0.478  -1.207  0.00  0.00     0.091 N 
ATOM     26  C6  <0> d   1       0.525  -1.929  -1.372  0.00  0.00     0.302 C 
ATOM     27  C5  <0> d   1       1.186  -2.369  -2.680  0.00  0.00     0.303 C 
BRANCH  25  28
ATOM     28  C2  <0> d   1       0.002  -0.004   0.002  0.00  0.00     0.268 C 
ATOM     29  C1  <0> d   1      -0.019   1.526   0.010  0.00  0.00     0.037 C 
ENDBRANCH  25  28
ENDBRANCH  21  22
ENDBRANCH   1  21
BRANCH   2  30
ATOM     30  O4  <0> d   1       5.377  -3.971  -2.695  0.00  0.00    -0.360 OA
ATOM     31  H24 <0> d   1       5.231  -3.779  -1.758  0.00  0.00     0.217 HD
ENDBRANCH   2  30
TORSDOF 5
