REMARK  4 active torsions:
REMARK  status: ('A' for Active; 'I' for Inactive)
REMARK    1  A    between atoms: C4_4  and  O3_27 
REMARK    2  A    between atoms: C5_5  and  C17_19 
REMARK    3  A    between atoms: C10_11  and  C11_12 
REMARK    4  A    between atoms: C17_19  and  N1_20 
ROOT
ATOM      1  C1  <0> d   1      -0.082   1.509   0.016  0.00  0.00     0.049 C 
ATOM      2  C2  <0> d   1      -0.072   0.002   0.006  0.00  0.00    -0.042 A 
ATOM      3  C3  <0> d   1      -0.095  -0.674  -1.181  0.00  0.00     0.045 A 
ATOM      4  C4  <0> d   1      -0.086  -2.066  -1.193  0.00  0.00     0.077 A 
ATOM      5  C5  <0> d   1      -0.053  -2.781  -0.006  0.00  0.00     0.038 A 
ATOM      6  C6  <0> d   1      -0.030  -2.109   1.209  0.00  0.00     0.102 A 
ATOM      7  C7  <0> d   1      -0.034  -0.704   1.208  0.00  0.00     0.057 A 
ATOM      8  C8  <0> d   1       0.002  -0.288   2.622  0.00  0.00     0.219 A 
ATOM      9  O1  <0> d   1       0.006   0.847   3.065  0.00  0.00    -0.284 OA
ATOM     10  C9  <0> d   1       0.031  -1.551   3.378  0.00  0.00     0.128 A 
ATOM     11  C10 <0> d   1       0.069  -1.676   4.727  0.00  0.00     0.053 C 
ATOM     12  O2  <0> d   1       0.003  -2.564   2.481  0.00  0.00    -0.305 OA
ENDROOT
BRANCH   5  13
ATOM     13  C17 <0> d   1      -0.044  -4.288  -0.035  0.00  0.00     0.317 C 
BRANCH  13  14
ATOM     14  N1  <0> d   1       1.343  -4.768  -0.076  0.00  0.00     0.096 N 
ATOM     15  C21 <0> d   1       1.403  -6.222   0.134  0.00  0.00     0.303 C 
ATOM     16  C20 <0> d   1       2.866  -6.670   0.163  0.00  0.00     0.302 C 
ATOM     17  N2  <0> d   1       3.516  -6.296  -1.101  0.00  0.00     0.087 N 
ATOM     18  C19 <0> d   1       3.455  -4.843  -1.311  0.00  0.00     0.302 C 
ATOM     19  C22 <0> d   1       4.903  -6.777  -1.143  0.00  0.00     0.310 C 
ATOM     20  C18 <0> d   1       1.992  -4.394  -1.340  0.00  0.00     0.303 C 
ENDBRANCH  13  14
ENDBRANCH   5  13
BRANCH   4  21
ATOM     21  O3  <0> d   1      -0.109  -2.729  -2.377  0.00  0.00    -0.360 OA
ATOM     22  H24 <0> d   1       0.767  -2.915  -2.741  0.00  0.00     0.217 HD
ENDBRANCH   4  21
BRANCH  11  23
ATOM     23  C11 <0> d   1      -0.017  -3.007   5.344  0.00  0.00    -0.034 A 
ATOM     24  C16 <0> d   1      -0.009  -4.155   4.544  0.00  0.00     0.011 A 
ATOM     25  C15 <0> d   1      -0.085  -5.401   5.131  0.00  0.00     0.001 A 
ATOM     26  C14 <0> d   1      -0.181  -5.516   6.508  0.00  0.00     0.000 A 
ATOM     27  C13 <0> d   1      -0.196  -4.386   7.306  0.00  0.00     0.001 A 
ATOM     28  C12 <0> d   1      -0.114  -3.133   6.735  0.00  0.00     0.011 A 
ENDBRANCH  11  23
TORSDOF 4
