REMARK  6 active torsions:
REMARK  status: ('A' for Active; 'I' for Inactive)
REMARK    1  A    between atoms: C2_2  and  N1_3 
REMARK    2  A    between atoms: N2_6  and  C7_9 
REMARK    3  A    between atoms: C7_9  and  C8_10 
REMARK    4  A    between atoms: C9_11  and  O6_34 
REMARK    5  A    between atoms: C16_20  and  C17_21 
REMARK    6  A    between atoms: C23_27  and  O5_32 
ROOT
ATOM      1  C8  <0> d   1       5.479   8.470   2.156  0.00  0.00     0.036 A 
ATOM      2  C9  <0> d   1       4.654   8.541   3.267  0.00  0.00     0.076 A 
ATOM      3  C10 <0> d   1       3.471   7.808   3.316  0.00  0.00     0.038 A 
ATOM      4  C11 <0> d   1       3.110   7.008   2.269  0.00  0.00     0.018 A 
ATOM      5  C12 <0> d   1       3.930   6.926   1.143  0.00  0.00     0.010 A 
ATOM      6  C13 <0> d   1       5.125   7.663   1.085  0.00  0.00     0.101 A 
ATOM      7  O1  <0> d   1       5.917   7.581  -0.006  0.00  0.00    -0.274 OA
ATOM      8  C14 <0> d   1       5.601   6.808  -1.057  0.00  0.00     0.289 A 
ATOM      9  O2  <0> d   1       6.354   6.774  -2.015  0.00  0.00    -0.260 OA
ATOM     10  C15 <0> d   1       4.430   6.036  -1.083  0.00  0.00     0.096 A 
ATOM     11  C16 <0> d   1       3.565   6.073  -0.001  0.00  0.00    -0.001 A 
ENDROOT
BRANCH  11  12
ATOM     12  C17 <0> d   1       2.322   5.279   0.007  0.00  0.00     0.052 A 
ATOM     13  C25 <0> d   1       1.012   5.941   0.022  0.00  0.00     0.299 A 
ATOM     14  O3  <0> d   1      -0.114   5.209   0.029  0.00  0.00    -0.271 OA
ATOM     15  O4  <0> d   1       0.947   7.156   0.029  0.00  0.00    -0.259 OA
ATOM     16  C24 <0> d   1      -0.075   3.859   0.023  0.00  0.00     0.123 A 
ATOM     17  C19 <0> d   1       1.150   3.172   0.008  0.00  0.00     0.002 A 
ATOM     18  C23 <0> d   1      -1.265   3.130   0.030  0.00  0.00     0.102 A 
ATOM     19  C18 <0> d   1       2.370   3.897  -0.001  0.00  0.00     0.032 A 
ATOM     20  C20 <0> d   1       1.163   1.769   0.001  0.00  0.00     0.014 A 
ATOM     21  C21 <0> d   1      -0.013   1.076   0.008  0.00  0.00     0.004 A 
ATOM     22  C22 <0> d   1      -1.227   1.748   0.017  0.00  0.00     0.040 A 
BRANCH  18  23
ATOM     23  O5  <0> d   1      -2.461   3.777   0.044  0.00  0.00    -0.353 OA
ATOM     24  C26 <0> d   1      -3.638   2.967   0.051  0.00  0.00     0.210 C 
ENDBRANCH  18  23
ENDBRANCH  11  12
BRANCH   1  25
ATOM     25  C7  <0> d   1       6.757   9.268   2.112  0.00  0.00     0.279 C 
BRANCH  25  26
ATOM     26  N2  <0> d   1       6.490  10.587   1.524  0.00  0.00    -0.064 N 
ATOM     27  C4  <0> d   1       7.650  11.477   1.679  0.00  0.00     0.265 C 
ATOM     28  C3  <0> d   1       7.304  12.862   1.126  0.00  0.00     0.300 C 
ATOM     29  N1  <0> d   1       6.922  12.741  -0.288  0.00  0.00     0.091 N 
ATOM     30  C6  <0> d   1       5.763  11.851  -0.443  0.00  0.00     0.300 C 
ATOM     31  C5  <0> d   1       6.108  10.466   0.110  0.00  0.00     0.265 C 
ATOM     32  H27 <0> d   1       5.644  11.034   2.067  0.00  0.00     0.280 HD
BRANCH  29  33
ATOM     33  C2  <0> d   1       6.655  14.060  -0.876  0.00  0.00     0.268 C 
ATOM     34  C1  <0> d   1       6.507  13.922  -2.392  0.00  0.00     0.037 C 
ENDBRANCH  29  33
ENDBRANCH  25  26
ENDBRANCH   1  25
BRANCH   2  35
ATOM     35  O6  <0> d   1       5.001   9.331   4.315  0.00  0.00    -0.360 OA
ATOM     36  H26 <0> d   1       4.349   9.390   5.199  0.00  0.00     0.217 HD
ENDBRANCH   2  35
TORSDOF 6
