REMARK  4 active torsions:
REMARK  status: ('A' for Active; 'I' for Inactive)
REMARK    1  A    between atoms: C4_4  and  O3_28 
REMARK    2  A    between atoms: C5_5  and  C17_20 
REMARK    3  A    between atoms: C10_11  and  C11_12 
REMARK    4  A    between atoms: C17_20  and  N1_21 
ROOT
ATOM      1  C1  <0> d   1       0.372   1.463  -0.008  0.00  0.00     0.049 C 
ATOM      2  C2  <0> d   1       0.064  -0.012  -0.001  0.00  0.00    -0.042 A 
ATOM      3  C3  <0> d   1      -0.156  -0.670  -1.179  0.00  0.00     0.045 A 
ATOM      4  C4  <0> d   1      -0.441  -2.033  -1.175  0.00  0.00     0.077 A 
ATOM      5  C5  <0> d   1      -0.505  -2.737   0.017  0.00  0.00     0.038 A 
ATOM      6  C6  <0> d   1      -0.284  -2.083   1.222  0.00  0.00     0.102 A 
ATOM      7  C7  <0> d   1       0.008  -0.710   1.206  0.00  0.00     0.057 A 
ATOM      8  C8  <0> d   1       0.198  -0.308   2.611  0.00  0.00     0.219 A 
ATOM      9  O1  <0> d   1       0.462   0.801   3.041  0.00  0.00    -0.284 OA
ATOM     10  C9  <0> d   1      -0.004  -1.548   3.379  0.00  0.00     0.128 A 
ATOM     11  C10 <0> d   1       0.069  -1.676   4.727  0.00  0.00     0.053 C 
ATOM     12  O2  <0> d   1      -0.289  -2.533   2.496  0.00  0.00    -0.305 OA
ENDROOT
BRANCH   5  13
ATOM     13  C17 <0> d   1      -0.815  -4.212   0.005  0.00  0.00     0.317 C 
BRANCH  13  14
ATOM     14  N1  <0> d   1       0.436  -4.974  -0.093  0.00  0.00     0.096 N 
ATOM     15  C21 <0> d   1       0.199  -6.407   0.130  0.00  0.00     0.303 C 
ATOM     16  C20 <0> d   1       1.534  -7.154   0.098  0.00  0.00     0.302 C 
ATOM     17  N2  <0> d   1       2.188  -6.928  -1.198  0.00  0.00     0.087 N 
ATOM     18  C19 <0> d   1       2.426  -5.495  -1.421  0.00  0.00     0.302 C 
ATOM     19  C22 <0> d   1       3.440  -7.690  -1.296  0.00  0.00     0.310 C 
ATOM     20  C18 <0> d   1       1.091  -4.748  -1.389  0.00  0.00     0.303 C 
ENDBRANCH  13  14
ENDBRANCH   5  13
BRANCH   4  21
ATOM     21  O3  <0> d   1      -0.659  -2.678  -2.350  0.00  0.00    -0.360 OA
ATOM     22  H23 <0> d   1       0.141  -3.045  -2.751  0.00  0.00     0.217 HD
ENDBRANCH   4  21
BRANCH  11  23
ATOM     23  C11 <0> d   1      -0.018  -3.007   5.344  0.00  0.00    -0.030 A 
ATOM     24  C16 <0> d   1      -0.109  -3.133   6.735  0.00  0.00     0.053 A 
ATOM     25  C15 <0> d   1      -0.196  -4.388   7.306  0.00  0.00     0.117 A 
ATOM     26  C14 <0> d   1      -0.181  -5.519   6.505  0.00  0.00     0.042 A 
ATOM     27  F1  <0> d   1      -0.291  -4.512   8.648  0.00  0.00    -0.206 F 
ATOM     28  C13 <0> d   1      -0.086  -5.401   5.130  0.00  0.00     0.004 A 
ATOM     29  C12 <0> d   1      -0.004  -4.156   4.544  0.00  0.00     0.011 A 
ENDBRANCH  11  23
TORSDOF 4
