REMARK  3 active torsions:
REMARK  status: ('A' for Active; 'I' for Inactive)
REMARK    1  A    between atoms: N1_6  and  C7_8 
REMARK    2  A    between atoms: C7_8  and  C8_9 
REMARK    3  A    between atoms: C15_17  and  C17_20 
ROOT
ATOM      1  C8  <0> d   1      -0.047   3.863   0.023  0.00  0.00     0.039 A 
ATOM      2  C9  <0> d   1      -1.227   3.138   0.030  0.00  0.00     0.118 A 
ATOM      3  C10 <0> d   1      -1.203   1.745   0.017  0.00  0.00     0.041 A 
ATOM      4  C11 <0> d   1      -0.013   1.076   0.008  0.00  0.00     0.021 A 
ATOM      5  C12 <0> d   1       1.185   1.792   0.000  0.00  0.00     0.050 A 
ATOM      6  C13 <0> d   1       1.172   3.198   0.008  0.00  0.00     0.100 A 
ATOM      7  O1  <0> d   1       2.329   3.889   0.002  0.00  0.00    -0.320 OA
ATOM      8  C14 <0> d   1       3.531   3.306  -0.011  0.00  0.00     0.159 A 
ATOM      9  C15 <0> d   1       3.689   1.957  -0.020  0.00  0.00     0.048 A 
ATOM     10  C16 <0> d   1       2.488   1.104  -0.015  0.00  0.00     0.197 A 
ATOM     11  O2  <0> d   1       2.568  -0.112  -0.023  0.00  0.00    -0.286 OA
ATOM     12  O3  <0> d   1      -2.417   3.791   0.045  0.00  0.00    -0.191 OA
ENDROOT
BRANCH   1  13
ATOM     13  C7  <0> d   1      -0.086   5.370   0.032  0.00  0.00     0.279 C 
BRANCH  13  14
ATOM     14  N1  <0> d   1      -0.111   5.867  -1.350  0.00  0.00    -0.067 N 
ATOM     15  C5  <0> d   1      -1.361   5.489  -2.023  0.00  0.00     0.235 C 
ATOM     16  C4  <0> d   1      -1.416   6.144  -3.405  0.00  0.00     0.028 C 
ATOM     17  C3  <0> d   1      -0.211   5.685  -4.230  0.00  0.00     0.007 C 
ATOM     18  C2  <0> d   1       1.077   6.048  -3.485  0.00  0.00     0.007 C 
ATOM     19  C1  <0> d   1       2.284   5.540  -4.275  0.00  0.00     0.011 C 
ATOM     20  C6  <0> d   1       1.060   5.395  -2.101  0.00  0.00     0.239 C 
ATOM     21  H23 <0> d   1      -0.067   6.966  -1.317  0.00  0.00     0.280 HD
ENDBRANCH  13  14
ENDBRANCH   1  13
BRANCH   9  22
ATOM     22  C17 <0> d   1       5.044   1.355  -0.034  0.00  0.00    -0.020 A 
ATOM     23  C22 <0> d   1       5.990   1.784  -0.962  0.00  0.00     0.012 A 
ATOM     24  C21 <0> d   1       7.250   1.221  -0.971  0.00  0.00     0.001 A 
ATOM     25  C20 <0> d   1       7.574   0.232  -0.059  0.00  0.00     0.000 A 
ATOM     26  C19 <0> d   1       6.639  -0.198   0.865  0.00  0.00     0.001 A 
ATOM     27  C18 <0> d   1       5.378   0.362   0.885  0.00  0.00     0.012 A 
ENDBRANCH   9  22
TORSDOF 3
