REMARK  4 active torsions:
REMARK  status: ('A' for Active; 'I' for Inactive)
REMARK    1  A    between atoms: C3_3  and  C14_18 
REMARK    2  A    between atoms: C9_10  and  C11_13 
REMARK    3  A    between atoms: C11_13  and  N1_14 
REMARK    4  A    between atoms: C19_23  and  O4_24 
ROOT
ATOM      1  C1  <0> d   1      -2.447  -0.016  -2.439  0.00  0.00     0.077 C 
ATOM      2  C2  <0> d   1      -3.109   0.343  -1.134  0.00  0.00     0.065 A 
ATOM      3  C3  <0> d   1      -2.495  -0.004   0.026  0.00  0.00     0.057 A 
ATOM      4  C4  <0> d   1      -3.140   0.352   1.302  0.00  0.00     0.198 A 
ATOM      5  O1  <0> d   1      -2.633   0.071   2.374  0.00  0.00    -0.286 OA
ATOM      6  C5  <0> d   1      -4.427   1.065   1.219  0.00  0.00     0.050 A 
ATOM      7  C6  <0> d   1      -5.119   1.448   2.369  0.00  0.00     0.021 A 
ATOM      8  C7  <0> d   1      -6.309   2.106   2.257  0.00  0.00     0.041 A 
ATOM      9  C8  <0> d   1      -6.836   2.398   1.000  0.00  0.00     0.118 A 
ATOM     10  C9  <0> d   1      -6.162   2.025  -0.150  0.00  0.00     0.039 A 
ATOM     11  C10 <0> d   1      -4.950   1.354  -0.054  0.00  0.00     0.100 A 
ATOM     12  O2  <0> d   1      -4.280   0.985  -1.164  0.00  0.00    -0.313 OA
ATOM     13  O3  <0> d   1      -8.020   3.054   0.903  0.00  0.00    -0.191 OA
ENDROOT
BRANCH   3  14
ATOM     14  C14 <0> d   1      -1.198  -0.722   0.010  0.00  0.00     0.014 A 
ATOM     15  C19 <0> d   1       0.002  -0.004   0.002  0.00  0.00     0.079 A 
ATOM     16  C18 <0> d   1       1.210  -0.683  -0.019  0.00  0.00     0.037 A 
ATOM     17  C17 <0> d   1       1.227  -2.065  -0.021  0.00  0.00     0.003 A 
ATOM     18  C16 <0> d   1       0.042  -2.778  -0.013  0.00  0.00     0.001 A 
ATOM     19  C15 <0> d   1      -1.169  -2.115   0.002  0.00  0.00     0.015 A 
BRANCH  15  20
ATOM     20  O4  <0> d   1      -0.016   1.355   0.009  0.00  0.00    -0.355 OA
ATOM     21  C20 <0> d   1       1.248   2.021   0.001  0.00  0.00     0.210 C 
ENDBRANCH  15  20
ENDBRANCH   3  14
BRANCH  10  22
ATOM     22  C11 <0> d   1      -6.742   2.346  -1.504  0.00  0.00     0.278 C 
BRANCH  22  23
ATOM     23  N1  <0> d   1      -7.601   1.238  -1.943  0.00  0.00    -0.075 N 
ATOM     24  C12 <0> d   1      -8.369   1.610  -3.139  0.00  0.00     0.269 C 
ATOM     25  C13 <0> d   1      -6.812   0.022  -2.181  0.00  0.00     0.269 C 
ATOM     26  H21 <0> d   1      -8.317   1.024  -1.135  0.00  0.00     0.279 HD
ENDBRANCH  22  23
ENDBRANCH  10  22
TORSDOF 4
