REMARK  5 active torsions:
REMARK  status: ('A' for Active; 'I' for Inactive)
REMARK    1  A    between atoms: C8_9  and  C11_14 
REMARK    2  A    between atoms: C11_14  and  N1_15 
REMARK    3  A    between atoms: N2_18  and  C16_21 
REMARK    4  A    between atoms: C16_21  and  C17_22 
REMARK    5  A    between atoms: C18_23  and  C19_24 
ROOT
ATOM      1  N1  <0> d   1      -0.701   1.560   1.216  0.00  0.00    -0.064 N 
ATOM      2  C12 <0> d   1      -0.013   1.086   0.008  0.00  0.00     0.265 C 
ATOM      3  C13 <0> d   1      -0.754   1.593  -1.231  0.00  0.00     0.300 C 
ATOM      4  N2  <0> d   1      -0.806   3.062  -1.200  0.00  0.00     0.095 N 
ATOM      5  C14 <0> d   1      -1.495   3.536   0.008  0.00  0.00     0.300 C 
ATOM      6  C15 <0> d   1      -0.754   3.029   1.247  0.00  0.00     0.265 C 
ATOM      7  H26 <0> d   1      -1.735   1.184   1.189  0.00  0.00     0.280 HD
ENDROOT
BRANCH   1   8
ATOM      8  C11 <0> d   1      -0.062   1.031   2.429  0.00  0.00     0.274 C 
BRANCH   8   9
ATOM      9  C8  <0> d   1      -0.631   1.724   3.640  0.00  0.00    -0.014 A 
ATOM     10  C5  <0> d   1      -1.925   1.321   4.200  0.00  0.00     0.008 A 
ATOM     11  C4  <0> d   1      -2.418   1.994   5.332  0.00  0.00     0.090 A 
ATOM     12  C6  <0> d   1      -2.666   0.283   3.627  0.00  0.00     0.039 A 
ATOM     13  C3  <0> d   1      -3.641   1.619   5.871  0.00  0.00     0.046 A 
ATOM     14  O2  <0> d   1      -1.699   2.995   5.884  0.00  0.00    -0.275 OA
ATOM     15  C2  <0> d   1      -4.362   0.594   5.295  0.00  0.00    -0.038 A 
ATOM     16  C1  <0> d   1      -5.690   0.193   5.886  0.00  0.00     0.050 C 
ATOM     17  C7  <0> d   1      -3.878  -0.072   4.178  0.00  0.00     0.041 A 
ATOM     18 Cl1  <0> d   1      -4.804  -1.360   3.471  0.00  0.00    -0.084 Cl
ATOM     19  C10 <0> d   1      -0.514   3.369   5.377  0.00  0.00     0.288 A 
ATOM     20  C9  <0> d   1       0.042   2.734   4.245  0.00  0.00     0.092 A 
ATOM     21  O1  <0> d   1       0.099   4.277   5.909  0.00  0.00    -0.260 OA
ENDBRANCH   8   9
ENDBRANCH   1   8
BRANCH   4  22
ATOM     22  C16 <0> d   1      -1.445   3.591  -2.413  0.00  0.00     0.300 C 
BRANCH  22  23
ATOM     23  C17 <0> d   1      -1.263   5.086  -2.464  0.00  0.00     0.004 C 
ATOM     24  C18 <0> d   1      -0.710   5.651  -3.529  0.00  0.00     0.009 C 
BRANCH  24  25
ATOM     25  C19 <0> d   1      -0.532   7.117  -3.579  0.00  0.00    -0.036 A 
ATOM     26  C24 <0> d   1       0.050   7.714  -4.698  0.00  0.00     0.011 A 
ATOM     27  C23 <0> d   1       0.213   9.084  -4.739  0.00  0.00     0.001 A 
ATOM     28  C22 <0> d   1      -0.199   9.864  -3.673  0.00  0.00     0.000 A 
ATOM     29  C21 <0> d   1      -0.775   9.278  -2.561  0.00  0.00     0.001 A 
ATOM     30  C20 <0> d   1      -0.950   7.911  -2.510  0.00  0.00     0.011 A 
ENDBRANCH  24  25
ENDBRANCH  22  23
ENDBRANCH   4  22
TORSDOF 5
