REMARK  6 active torsions:
REMARK  status: ('A' for Active; 'I' for Inactive)
REMARK    1  A    between atoms: C3_3  and  O3_22 
REMARK    2  A    between atoms: C8_8  and  C10_12 
REMARK    3  A    between atoms: C13_15  and  O1_18 
REMARK    4  A    between atoms: O3_22  and  C18_23 
REMARK    5  A    between atoms: C18_23  and  C19_24 
REMARK    6  A    between atoms: C19_24  and  N3_25 
ROOT
ATOM      1  C1  <0> d   1      -0.117   0.984   0.401  0.00  0.00     0.055 C 
ATOM      2  C2  <0> d   1      -0.039  -0.515   0.530  0.00  0.00     0.022 A 
ATOM      3  C3  <0> d   1      -1.161  -1.239   0.883  0.00  0.00     0.078 A 
ATOM      4  C4  <0> d   1      -1.099  -2.630   1.005  0.00  0.00     0.038 A 
ATOM      5  C5  <0> d   1       0.067  -3.296   0.779  0.00  0.00     0.021 A 
ATOM      6  C6  <0> d   1       1.225  -2.590   0.419  0.00  0.00     0.044 A 
ATOM      7  C7  <0> d   1       2.438  -3.281   0.183  0.00  0.00     0.074 A 
ATOM      8  C8  <0> d   1       2.605  -4.683   0.126  0.00  0.00     0.020 A 
ATOM      9  C9  <0> d   1       3.936  -4.936  -0.124  0.00  0.00     0.121 A 
ATOM     10  N1  <0> d   1       4.589  -3.749  -0.223  0.00  0.00    -0.310 N 
ATOM     11  N2  <0> d   1       3.664  -2.714  -0.038  0.00  0.00    -0.299 N 
ATOM     12  C17 <0> d   1       1.169  -1.178   0.287  0.00  0.00     0.193 A 
ATOM     13  O2  <0> d   1       2.169  -0.546  -0.031  0.00  0.00    -0.287 OA
ATOM     14  H7  <0> d   1       5.537  -3.637  -0.396  0.00  0.00     0.186 HD
ATOM     15  H8  <0> d   1       3.858  -1.764  -0.061  0.00  0.00     0.187 HD
ENDROOT
BRANCH   8  16
ATOM     16  C10 <0> d   1       1.539  -5.699   0.305  0.00  0.00    -0.022 A 
ATOM     17  C15 <0> d   1       1.533  -6.514   1.435  0.00  0.00     0.015 A 
ATOM     18  C14 <0> d   1       0.538  -7.454   1.601  0.00  0.00     0.037 A 
ATOM     19  C13 <0> d   1      -0.452  -7.596   0.638  0.00  0.00     0.068 A 
ATOM     20  C12 <0> d   1      -0.446  -6.790  -0.492  0.00  0.00     0.037 A 
ATOM     21  C11 <0> d   1       0.544  -5.844  -0.661  0.00  0.00     0.015 A 
BRANCH  19  22
ATOM     22  O1  <0> d   1      -1.429  -8.527   0.802  0.00  0.00    -0.356 OA
ATOM     23  C16 <0> d   1      -1.374  -9.323   1.987  0.00  0.00     0.210 C 
ENDBRANCH  19  22
ENDBRANCH   8  16
BRANCH   3  24
ATOM     24  O3  <0> d   1      -2.333  -0.595   1.113  0.00  0.00    -0.349 OA
BRANCH  24  25
ATOM     25  C18 <0> d   1      -2.845  -0.637   2.446  0.00  0.00     0.203 C 
BRANCH  25  26
ATOM     26  C19 <0> d   1      -4.220   0.032   2.486  0.00  0.00     0.261 C 
BRANCH  26  27
ATOM     27  N3  <0> d   1      -5.165  -0.740   1.667  0.00  0.00    -0.065 N 
ATOM     28  C23 <0> d   1      -5.387  -2.054   2.285  0.00  0.00     0.261 C 
ATOM     29  C22 <0> d   1      -6.371  -2.857   1.431  0.00  0.00     0.195 C 
ATOM     30  O4  <0> d   1      -7.592  -2.124   1.303  0.00  0.00    -0.388 OA
ATOM     31  C21 <0> d   1      -7.424  -0.825   0.727  0.00  0.00     0.195 C 
ATOM     32  C20 <0> d   1      -6.442  -0.018   1.580  0.00  0.00     0.261 C 
ATOM     33  H28 <0> d   1      -4.784  -0.864   0.741  0.00  0.00     0.280 HD
ENDBRANCH  26  27
ENDBRANCH  25  26
ENDBRANCH  24  25
ENDBRANCH   3  24
TORSDOF 6
