REMARK  6 active torsions:
REMARK  status: ('A' for Active; 'I' for Inactive)
REMARK    1  A    between atoms: C6_6  and  O1_7 
REMARK    2  A    between atoms: C7_8  and  C10_13 
REMARK    3  A    between atoms: C10_13  and  N1_14 
REMARK    4  A    between atoms: N2_17  and  C15_20 
REMARK    5  A    between atoms: C15_20  and  C16_21 
REMARK    6  A    between atoms: C16_21  and  O4_22 
ROOT
ATOM      1  C1  <0> d   1      -0.017   1.388   0.010  0.00  0.00     0.039 A 
ATOM      2  C2  <0> d   1       1.160   2.106   0.002  0.00  0.00     0.041 A 
ATOM      3  C3  <0> d   1       2.380   1.442  -0.013  0.00  0.00     0.090 A 
ATOM      4  C4  <0> d   1       2.403   0.036  -0.021  0.00  0.00     0.009 A 
ATOM      5  C5  <0> d   1       1.205  -0.683  -0.014  0.00  0.00     0.051 A 
ATOM      6  C6  <0> d   1       0.002  -0.004   0.002  0.00  0.00     0.066 A 
ATOM      7  C7  <0> d   1       3.697  -0.653  -0.037  0.00  0.00    -0.011 A 
ATOM      8  C8  <0> d   1       4.825   0.101  -0.044  0.00  0.00     0.092 A 
ATOM      9  C9  <0> d   1       4.728   1.509  -0.035  0.00  0.00     0.288 A 
ATOM     10  O2  <0> d   1       5.748   2.175  -0.042  0.00  0.00    -0.260 OA
ATOM     11  O3  <0> d   1       3.540   2.134  -0.021  0.00  0.00    -0.275 OA
ENDROOT
BRANCH   7  12
ATOM     12  C10 <0> d   1       3.772  -2.158  -0.045  0.00  0.00     0.312 C 
BRANCH  12  13
ATOM     13  N1  <0> d   1       3.690  -2.660   1.333  0.00  0.00     0.096 N 
ATOM     14  C14 <0> d   1       3.521  -4.120   1.352  0.00  0.00     0.303 C 
ATOM     15  C13 <0> d   1       3.360  -4.593   2.799  0.00  0.00     0.302 C 
ATOM     16  N2  <0> d   1       4.540  -4.191   3.577  0.00  0.00     0.093 N 
ATOM     17  C12 <0> d   1       4.708  -2.732   3.558  0.00  0.00     0.302 C 
ATOM     18  C11 <0> d   1       4.870  -2.259   2.111  0.00  0.00     0.303 C 
BRANCH  16  19
ATOM     19  C15 <0> d   1       4.457  -4.694   4.955  0.00  0.00     0.298 C 
BRANCH  19  20
ATOM     20  C16 <0> d   1       4.533  -6.222   4.947  0.00  0.00     0.194 C 
BRANCH  20  21
ATOM     21  O4  <0> d   1       5.817  -6.632   4.471  0.00  0.00    -0.399 OA
ATOM     22  H20 <0> d   1       5.936  -7.591   4.439  0.00  0.00     0.209 HD
ENDBRANCH  20  21
ENDBRANCH  19  20
ENDBRANCH  16  19
ENDBRANCH  12  13
ENDBRANCH   7  12
BRANCH   6  23
ATOM     23  O1  <0> d   1      -1.167  -0.698   0.010  0.00  0.00    -0.361 OA
ATOM     24  H4  <0> d   1      -1.514  -0.893  -0.871  0.00  0.00     0.217 HD
ENDBRANCH   6  23
TORSDOF 6
