REMARK  6 active torsions:
REMARK  status: ('A' for Active; 'I' for Inactive)
REMARK    1  A    between atoms: C2_2  and  N1_3 
REMARK    2  A    between atoms: N2_6  and  C7_9 
REMARK    3  A    between atoms: C7_9  and  C8_10 
REMARK    4  A    between atoms: C15_18  and  C16_19 
REMARK    5  A    between atoms: C19_22  and  O2_25 
REMARK    6  A    between atoms: O2_25  and  C22_26 
ROOT
ATOM      1  C8  <0> d   1      -4.387  -4.162  -0.805  0.00  0.00     0.039 A 
ATOM      2  C9  <0> d   1      -4.490  -4.913  -1.965  0.00  0.00     0.118 A 
ATOM      3  C10 <0> d   1      -4.807  -6.267  -1.905  0.00  0.00     0.041 A 
ATOM      4  C11 <0> d   1      -5.019  -6.870  -0.698  0.00  0.00     0.021 A 
ATOM      5  C12 <0> d   1      -4.918  -6.126   0.478  0.00  0.00     0.051 A 
ATOM      6  C13 <0> d   1      -4.594  -4.761   0.431  0.00  0.00     0.101 A 
ATOM      7  O1  <0> d   1      -4.547  -4.260   1.685  0.00  0.00    -0.305 OA
ATOM      8  C14 <0> d   1      -4.817  -5.207   2.615  0.00  0.00     0.127 A 
ATOM      9  C15 <0> d   1      -4.849  -5.023   3.960  0.00  0.00     0.053 C 
ATOM     10  C24 <0> d   1      -5.082  -6.465   1.903  0.00  0.00     0.218 A 
ATOM     11  O3  <0> d   1      -5.362  -7.550   2.385  0.00  0.00    -0.284 OA
ATOM     12  O4  <0> d   1      -4.282  -4.323  -3.170  0.00  0.00    -0.191 OA
ENDROOT
BRANCH   1  13
ATOM     13  C7  <0> d   1      -4.045  -2.696  -0.885  0.00  0.00     0.279 C 
BRANCH  13  14
ATOM     14  N2  <0> d   1      -2.586  -2.531  -0.836  0.00  0.00    -0.064 N 
ATOM     15  C4  <0> d   1      -2.247  -1.115  -1.034  0.00  0.00     0.265 C 
ATOM     16  C3  <0> d   1      -0.727  -0.946  -1.002  0.00  0.00     0.300 C 
ATOM     17  N1  <0> d   1      -0.211  -1.415   0.292  0.00  0.00     0.091 N 
ATOM     18  C6  <0> d   1      -0.564  -2.824   0.515  0.00  0.00     0.300 C 
ATOM     19  C5  <0> d   1      -2.086  -2.978   0.470  0.00  0.00     0.265 C 
ATOM     20  H28 <0> d   1      -2.161  -3.083  -1.566  0.00  0.00     0.280 HD
BRANCH  17  21
ATOM     21  C2  <0> d   1       1.242  -1.215   0.383  0.00  0.00     0.268 C 
ATOM     22  C1  <0> d   1       1.551   0.283   0.396  0.00  0.00     0.037 C 
ENDBRANCH  17  21
ENDBRANCH  13  14
ENDBRANCH   1  13
BRANCH   9  23
ATOM     23  C16 <0> d   1      -4.716  -3.673   4.520  0.00  0.00    -0.033 A 
ATOM     24  C21 <0> d   1      -4.583  -3.496   5.903  0.00  0.00     0.014 A 
ATOM     25  C20 <0> d   1      -4.452  -2.228   6.422  0.00  0.00     0.037 A 
ATOM     26  C19 <0> d   1      -4.463  -1.123   5.577  0.00  0.00     0.068 A 
ATOM     27  C18 <0> d   1      -4.601  -1.293   4.204  0.00  0.00     0.037 A 
ATOM     28  C17 <0> d   1      -4.727  -2.557   3.674  0.00  0.00     0.014 A 
BRANCH  26  29
ATOM     29  O2  <0> d   1      -4.340   0.125   6.095  0.00  0.00    -0.352 OA
BRANCH  29  30
ATOM     30  C22 <0> d   1      -4.202   0.229   7.514  0.00  0.00     0.171 C 
ATOM     31  C23 <0> d   1      -4.077   1.702   7.908  0.00  0.00     0.034 C 
ENDBRANCH  29  30
ENDBRANCH  26  29
ENDBRANCH   9  23
TORSDOF 6
