REMARK  9 active torsions:
REMARK  status: ('A' for Active; 'I' for Inactive)
REMARK    1  A    between atoms: C2_2  and  C4_4 
REMARK    2  A    between atoms: C4_4  and  O1_5 
REMARK    3  A    between atoms: O1_5  and  C5_6 
REMARK    4  A    between atoms: C7_8  and  O2_9 
REMARK    5  A    between atoms: C8_10  and  C9_11 
REMARK    6  A    between atoms: C10_12  and  C13_18 
REMARK    7  A    between atoms: C12_15  and  N3_17 
REMARK    8  A    between atoms: C16_21  and  O4_26 
REMARK    9  A    between atoms: C17_22  and  O3_24 
ROOT
ATOM      1  C9  <0> d   1      -5.459  -5.633  -0.208  0.00  0.00     0.101 A 
ATOM      2  C10 <0> d   1      -6.734  -5.137   0.132  0.00  0.00     0.023 A 
ATOM      3  C11 <0> d   1      -7.758  -6.054   0.362  0.00  0.00     0.151 A 
ATOM      4  N1  <0> d   1      -7.502  -7.347   0.253  0.00  0.00    -0.075 NA
ATOM      5  C12 <0> d   1      -6.291  -7.781  -0.069  0.00  0.00     0.720 A 
ATOM      6  N2  <0> d   1      -5.288  -6.950  -0.302  0.00  0.00    -0.062 NA
ENDROOT
BRANCH   1   7
ATOM      7  C8  <0> d   1      -4.334  -4.707  -0.463  0.00  0.00     0.028 A 
ATOM      8  C7  <0> d   1      -3.104  -4.903   0.178  0.00  0.00     0.081 A 
ATOM      9  C6  <0> d   1      -2.056  -4.032  -0.065  0.00  0.00     0.074 A 
ATOM     10  C5  <0> d   1      -2.225  -2.970  -0.942  0.00  0.00     0.071 A 
ATOM     11  C22 <0> d   1      -3.446  -2.772  -1.574  0.00  0.00     0.038 A 
ATOM     12  C21 <0> d   1      -4.495  -3.637  -1.343  0.00  0.00     0.019 A 
BRANCH   8  13
ATOM     13  O2  <0> d   1      -2.941  -5.943   1.036  0.00  0.00    -0.360 OA
ATOM     14  H23 <0> d   1      -3.162  -5.734   1.954  0.00  0.00     0.217 HD
ENDBRANCH   8  13
BRANCH  10  15
ATOM     15  O1  <0> d   1      -1.194  -2.118  -1.179  0.00  0.00    -0.347 OA
BRANCH  15  16
ATOM     16  C4  <0> d   1      -1.438  -1.042  -2.087  0.00  0.00     0.208 C 
BRANCH  16  17
ATOM     17  C2  <0> d   1      -0.190  -0.209  -2.224  0.00  0.00    -0.069 C 
ATOM     18  C1  <0> d   1      -0.184   0.995  -3.132  0.00  0.00     0.044 C 
ATOM     19  C3  <0> d   1       0.889  -0.530  -1.555  0.00  0.00     0.016 C 
ENDBRANCH  16  17
ENDBRANCH  15  16
ENDBRANCH  10  15
ENDBRANCH   1   7
BRANCH   2  20
ATOM     20  C13 <0> d   1      -6.978  -3.679   0.244  0.00  0.00    -0.019 A 
ATOM     21  C18 <0> d   1      -7.982  -3.079  -0.515  0.00  0.00     0.052 A 
ATOM     22  C17 <0> d   1      -8.211  -1.720  -0.402  0.00  0.00     0.102 A 
ATOM     23  C16 <0> d   1      -7.431  -0.951   0.458  0.00  0.00     0.101 A 
ATOM     24  C15 <0> d   1      -6.428  -1.548   1.207  0.00  0.00     0.040 A 
ATOM     25  C14 <0> d   1      -6.200  -2.905   1.104  0.00  0.00     0.015 A 
BRANCH  22  26
ATOM     26  O3  <0> d   1      -9.194  -1.133  -1.136  0.00  0.00    -0.353 OA
ATOM     27  C19 <0> d   1      -9.956  -1.982  -1.997  0.00  0.00     0.210 C 
ENDBRANCH  22  26
BRANCH  23  28
ATOM     28  O4  <0> d   1      -7.652   0.386   0.563  0.00  0.00    -0.353 OA
ATOM     29  C20 <0> d   1      -6.815   1.114   1.464  0.00  0.00     0.210 C 
ENDBRANCH  23  28
ENDBRANCH   2  20
BRANCH   5  30
ATOM     30  N3  <0> d   1      -6.072  -9.143  -0.171  0.00  0.00    -0.231 N 
ATOM     31  H10 <0> d   1      -6.798  -9.765  -0.007  0.00  0.00     0.174 HD
ATOM     32  H11 <0> d   1      -5.192  -9.477  -0.406  0.00  0.00     0.174 HD
ENDBRANCH   5  30
TORSDOF 9
