REMARK  6 active torsions:
REMARK  status: ('A' for Active; 'I' for Inactive)
REMARK    1  A    between atoms: C2_2  and  N1_3 
REMARK    2  A    between atoms: C4_5  and  C12_14 
REMARK    3  A    between atoms: C9_10  and  O1_12 
REMARK    4  A    between atoms: C18_21  and  O4_34 
REMARK    5  A    between atoms: C19_22  and  C21_25 
REMARK    6  A    between atoms: C21_25  and  N2_26 
ROOT
ATOM      1  C12 <0> d   1      -4.589  -0.938   4.851  0.00  0.00     0.055 C 
ATOM      2  C13 <0> d   1      -3.617   0.018   4.861  0.00  0.00     0.128 A 
ATOM      3  C14 <0> d   1      -3.504   1.076   5.801  0.00  0.00     0.218 A 
ATOM      4  O2  <0> d   1      -4.242   1.312   6.744  0.00  0.00    -0.284 OA
ATOM      5  C15 <0> d   1      -2.305   1.829   5.392  0.00  0.00     0.051 A 
ATOM      6  C16 <0> d   1      -1.664   2.961   5.894  0.00  0.00     0.021 A 
ATOM      7  C17 <0> d   1      -0.539   3.435   5.280  0.00  0.00     0.038 A 
ATOM      8  C18 <0> d   1      -0.029   2.788   4.157  0.00  0.00     0.076 A 
ATOM      9  C19 <0> d   1      -0.658   1.666   3.644  0.00  0.00     0.036 A 
ATOM     10  C20 <0> d   1      -1.802   1.173   4.257  0.00  0.00     0.101 A 
ATOM     11  O3  <0> d   1      -2.597   0.117   3.977  0.00  0.00    -0.305 OA
ENDROOT
BRANCH   1  12
ATOM     12  C4  <0> d   1      -4.585  -1.974   3.821  0.00  0.00    -0.005 A 
ATOM     13  C3  <0> d   1      -3.672  -2.119   2.798  0.00  0.00     0.103 A 
ATOM     14  N1  <0> d   1      -4.002  -3.198   2.047  0.00  0.00    -0.356 N 
ATOM     15  C6  <0> d   1      -5.140  -3.804   2.544  0.00  0.00     0.045 A 
ATOM     16  C5  <0> d   1      -5.553  -3.077   3.671  0.00  0.00     0.005 A 
ATOM     17  C7  <0> d   1      -5.870  -4.919   2.144  0.00  0.00     0.033 A 
ATOM     18  C10 <0> d   1      -6.690  -3.464   4.375  0.00  0.00     0.051 A 
ATOM     19  C9  <0> d   1      -7.404  -4.575   3.964  0.00  0.00     0.069 A 
ATOM     20  C8  <0> d   1      -6.991  -5.298   2.849  0.00  0.00     0.039 A 
BRANCH  14  21
ATOM     21  C2  <0> d   1      -3.255  -3.658   0.874  0.00  0.00     0.124 C 
ATOM     22  C1  <0> d   1      -3.888  -3.079  -0.393  0.00  0.00     0.027 C 
ENDBRANCH  14  21
BRANCH  19  23
ATOM     23  O1  <0> d   1      -8.513  -4.960   4.650  0.00  0.00    -0.356 OA
ATOM     24  C11 <0> d   1      -9.203  -6.117   4.171  0.00  0.00     0.210 C 
ENDBRANCH  19  23
ENDBRANCH   1  12
BRANCH   9  25
ATOM     25  C21 <0> d   1      -0.099   0.979   2.425  0.00  0.00     0.279 C 
BRANCH  25  26
ATOM     26  N2  <0> d   1      -0.700   1.559   1.216  0.00  0.00    -0.066 N 
ATOM     27  C26 <0> d   1      -0.013   1.086   0.008  0.00  0.00     0.239 C 
ATOM     28  C25 <0> d   1      -0.752   1.593  -1.232  0.00  0.00     0.008 C 
ATOM     29  C24 <0> d   1      -0.788   3.123  -1.209  0.00  0.00     0.011 C 
ATOM     30  C27 <0> d   1      -0.024   1.117  -2.491  0.00  0.00     0.011 C 
ATOM     31  C23 <0> d   1      -1.465   3.591   0.082  0.00  0.00     0.008 C 
ATOM     32  C22 <0> d   1      -0.705   3.026   1.284  0.00  0.00     0.239 C 
ATOM     33  C28 <0> d   1      -1.452   5.120   0.141  0.00  0.00     0.011 C 
ATOM     34  H32 <0> d   1      -1.745   1.222   1.161  0.00  0.00     0.280 HD
ENDBRANCH  25  26
ENDBRANCH   9  25
BRANCH   8  35
ATOM     35  O4  <0> d   1       1.093   3.264   3.558  0.00  0.00    -0.360 OA
ATOM     36  H33 <0> d   1       1.500   2.757   2.671  0.00  0.00     0.217 HD
ENDBRANCH   8  35
TORSDOF 6
