REMARK  6 active torsions:
REMARK  status: ('A' for Active; 'I' for Inactive)
REMARK    1  A    between atoms: C4_4  and  C7_7 
REMARK    2  A    between atoms: C8_8  and  C9_9 
REMARK    3  A    between atoms: C9_9  and  N1_10 
REMARK    4  A    between atoms: N2_13  and  C14_16 
REMARK    5  A    between atoms: C14_16  and  C15_17 
REMARK    6  A    between atoms: C21_25  and  O3_28 
ROOT
ATOM      1  N1  <0> d   1       5.087  -3.681   1.066  0.00  0.00     0.095 N 
ATOM      2  C10 <0> d   1       4.093  -4.752   0.908  0.00  0.00     0.303 C 
ATOM      3  C11 <0> d   1       4.126  -5.660   2.139  0.00  0.00     0.303 C 
ATOM      4  N2  <0> d   1       5.476  -6.218   2.297  0.00  0.00     0.096 N 
ATOM      5  C12 <0> d   1       6.470  -5.147   2.454  0.00  0.00     0.303 C 
ATOM      6  C13 <0> d   1       6.437  -4.239   1.223  0.00  0.00     0.303 C 
ENDROOT
BRANCH   4   7
ATOM      7  C14 <0> d   1       5.530  -7.157   3.426  0.00  0.00     0.312 C 
BRANCH   7   8
ATOM      8  C15 <0> d   1       6.847  -7.889   3.408  0.00  0.00    -0.011 A 
ATOM      9  C19 <0> d   1       7.028  -9.093   2.591  0.00  0.00     0.009 A 
ATOM     10  C18 <0> d   1       8.275  -9.742   2.601  0.00  0.00     0.090 A 
ATOM     11  C20 <0> d   1       5.986  -9.593   1.806  0.00  0.00     0.051 A 
ATOM     12  O2  <0> d   1       9.279  -9.258   3.365  0.00  0.00    -0.275 OA
ATOM     13  C23 <0> d   1       8.461 -10.880   1.828  0.00  0.00     0.041 A 
ATOM     14  C17 <0> d   1       9.119  -8.160   4.119  0.00  0.00     0.288 A 
ATOM     15  C16 <0> d   1       7.896  -7.455   4.153  0.00  0.00     0.092 A 
ATOM     16  O1  <0> d   1      10.052  -7.760   4.792  0.00  0.00    -0.260 OA
ATOM     17  C22 <0> d   1       7.424 -11.372   1.063  0.00  0.00     0.039 A 
ATOM     18  C21 <0> d   1       6.189 -10.729   1.046  0.00  0.00     0.066 A 
BRANCH  18  19
ATOM     19  O3  <0> d   1       5.180 -11.221   0.280  0.00  0.00    -0.361 OA
ATOM     20  H24 <0> d   1       5.158 -10.863  -0.618  0.00  0.00     0.217 HD
ENDBRANCH  18  19
ENDBRANCH   7   8
ENDBRANCH   4   7
BRANCH   1  21
ATOM     21  C9  <0> d   1       5.033  -2.743  -0.063  0.00  0.00     0.300 C 
BRANCH  21  22
ATOM     22  C8  <0> d   1       3.716  -2.010  -0.046  0.00  0.00     0.004 C 
ATOM     23  C7  <0> d   1       3.695  -0.685  -0.038  0.00  0.00     0.009 C 
BRANCH  23  24
ATOM     24  C4  <0> d   1       2.403   0.034  -0.021  0.00  0.00    -0.036 A 
ATOM     25  C3  <0> d   1       2.377   1.429  -0.013  0.00  0.00     0.011 A 
ATOM     26  C2  <0> d   1       1.168   2.093   0.002  0.00  0.00     0.001 A 
ATOM     27  C1  <0> d   1      -0.017   1.379   0.010  0.00  0.00     0.000 A 
ATOM     28  C6  <0> d   1       0.002  -0.004   0.002  0.00  0.00     0.001 A 
ATOM     29  C5  <0> d   1       1.204  -0.681  -0.013  0.00  0.00     0.011 A 
ENDBRANCH  23  24
ENDBRANCH  21  22
ENDBRANCH   1  21
TORSDOF 6
