REMARK  10 active torsions:
REMARK  status: ('A' for Active; 'I' for Inactive)
REMARK    1  A    between atoms: C3_4  and  C10_11 
REMARK    2  A    between atoms: C16_18  and  O5_32 
REMARK    3  A    between atoms: C17_19  and  C19_22 
REMARK    4  A    between atoms: C19_22  and  N2_23 
REMARK    5  A    between atoms: N2_23  and  C20_24 
REMARK    6  A    between atoms: N2_23  and  C23_28 
REMARK    7  A    between atoms: C20_24  and  C21_25 
REMARK    8  A    between atoms: C21_25  and  O3_26 
REMARK    9  A    between atoms: C23_28  and  C24_29 
REMARK   10  A    between atoms: C24_29  and  O4_30 
ROOT
ATOM      1  C10 <0> d   1      -0.493   5.891  -0.699  0.00  0.00     0.055 C 
ATOM      2  C11 <0> d   1      -0.152   7.210  -0.673  0.00  0.00     0.128 A 
ATOM      3  C12 <0> d   1      -1.042   8.301  -0.858  0.00  0.00     0.218 A 
ATOM      4  O1  <0> d   1      -2.243   8.251  -1.067  0.00  0.00    -0.284 OA
ATOM      5  C13 <0> d   1      -0.204   9.507  -0.740  0.00  0.00     0.051 A 
ATOM      6  C14 <0> d   1      -0.470  10.874  -0.820  0.00  0.00     0.021 A 
ATOM      7  C15 <0> d   1       0.545  11.775  -0.669  0.00  0.00     0.038 A 
ATOM      8  C16 <0> d   1       1.845  11.334  -0.436  0.00  0.00     0.076 A 
ATOM      9  C17 <0> d   1       2.125   9.980  -0.355  0.00  0.00     0.036 A 
ATOM     10  C18 <0> d   1       1.104   9.051  -0.505  0.00  0.00     0.101 A 
ATOM     11  O2  <0> d   1       1.094   7.701  -0.473  0.00  0.00    -0.305 OA
ENDROOT
BRANCH   1  12
ATOM     12  C3  <0> d   1       0.531   4.868  -0.499  0.00  0.00    -0.005 A 
ATOM     13  C2  <0> d   1       1.875   5.075  -0.276  0.00  0.00     0.103 A 
ATOM     14  N1  <0> d   1       2.501   3.880  -0.140  0.00  0.00    -0.360 N 
ATOM     15  C1  <0> d   1       3.934   3.712   0.109  0.00  0.00     0.156 C 
ATOM     16  C5  <0> d   1       1.598   2.843  -0.268  0.00  0.00     0.045 A 
ATOM     17  C4  <0> d   1       0.332   3.405  -0.497  0.00  0.00     0.002 A 
ATOM     18  C6  <0> d   1       1.729   1.460  -0.212  0.00  0.00     0.030 A 
ATOM     19  C9  <0> d   1      -0.777   2.582  -0.666  0.00  0.00     0.014 A 
ATOM     20  C8  <0> d   1      -0.626   1.213  -0.613  0.00  0.00     0.001 A 
ATOM     21  C7  <0> d   1       0.622   0.656  -0.381  0.00  0.00     0.002 A 
ENDBRANCH   1  12
BRANCH   9  22
ATOM     22  C19 <0> d   1       3.536   9.515  -0.103  0.00  0.00     0.279 C 
BRANCH  22  23
ATOM     23  N2  <0> d   1       4.167   9.150  -1.379  0.00  0.00    -0.063 N 
ATOM     24  H28 <0> d   1       3.447   8.547  -1.951  0.00  0.00     0.280 HD
BRANCH  23  25
ATOM     25  C20 <0> d   1       4.483  10.346  -2.170  0.00  0.00     0.261 C 
BRANCH  25  26
ATOM     26  C21 <0> d   1       5.520  11.191  -1.427  0.00  0.00     0.194 C 
BRANCH  26  27
ATOM     27  O3  <0> d   1       6.792  10.541  -1.483  0.00  0.00    -0.394 OA
ATOM     28  C22 <0> d   1       7.811  11.194  -0.723  0.00  0.00     0.201 C 
ENDBRANCH  26  27
ENDBRANCH  25  26
ENDBRANCH  23  25
BRANCH  23  29
ATOM     29  C23 <0> d   1       5.367   8.332  -1.158  0.00  0.00     0.261 C 
BRANCH  29  30
ATOM     30  C24 <0> d   1       5.790   7.681  -2.477  0.00  0.00     0.194 C 
BRANCH  30  31
ATOM     31  O4  <0> d   1       6.245   8.690  -3.381  0.00  0.00    -0.394 OA
ATOM     32  C25 <0> d   1       6.560   8.201  -4.686  0.00  0.00     0.201 C 
ENDBRANCH  30  31
ENDBRANCH  29  30
ENDBRANCH  23  29
ENDBRANCH  22  23
ENDBRANCH   9  22
BRANCH   8  33
ATOM     33  O5  <0> d   1       2.847  12.238  -0.289  0.00  0.00    -0.360 OA
ATOM     34  H29 <0> d   1       3.876  11.895  -0.105  0.00  0.00     0.217 HD
ENDBRANCH   8  33
TORSDOF 10
