REMARK  4 active torsions:
REMARK  status: ('A' for Active; 'I' for Inactive)
REMARK    1  A    between atoms: C4_4  and  C7_7 
REMARK    2  A    between atoms: C7_7  and  N1_8 
REMARK    3  A    between atoms: N2_11  and  C12_14 
REMARK    4  A    between atoms: C18_21  and  O3_25 
ROOT
ATOM      1  N1  <0> d   1       0.223   3.902   1.201  0.00  0.00    -0.064 N 
ATOM      2  C8  <0> d   1       1.438   3.106   0.982  0.00  0.00     0.255 C 
ATOM      3  C9  <0> d   1       1.208   2.141  -0.187  0.00  0.00     0.150 C 
ATOM      4  N2  <0> d   1      -0.008   1.360   0.085  0.00  0.00    -0.384 N 
ATOM      5  C10 <0> d   1      -1.236   2.085   0.441  0.00  0.00     0.150 C 
ATOM      6  C11 <0> d   1      -0.909   3.051   1.591  0.00  0.00     0.255 C 
ATOM      7  H21 <0> d   1      -0.035   4.387   0.248  0.00  0.00     0.280 HD
ENDROOT
BRANCH   4   8
ATOM      8  C12 <0> d   1       0.002  -0.004   0.002  0.00  0.00     0.127 C 
ATOM      9  C13 <0> d   1      -1.158  -0.699   0.112  0.00  0.00     0.142 A 
ATOM     10  O2  <0> d   1      -2.403  -0.162   0.144  0.00  0.00    -0.304 OA
ATOM     11  C14 <0> d   1      -1.273  -2.109   0.218  0.00  0.00     0.220 A 
ATOM     12  C20 <0> d   1      -3.349  -1.119   0.256  0.00  0.00     0.093 A 
ATOM     13  C15 <0> d   1      -2.720  -2.373   0.312  0.00  0.00     0.051 A 
ATOM     14  C19 <0> d   1      -4.735  -1.055   0.323  0.00  0.00     0.074 A 
ATOM     15  C16 <0> d   1      -3.478  -3.538   0.433  0.00  0.00     0.021 A 
ATOM     16  C17 <0> d   1      -4.840  -3.459   0.499  0.00  0.00     0.037 A 
ATOM     17  C18 <0> d   1      -5.474  -2.220   0.445  0.00  0.00     0.068 A 
ATOM     18  O1  <0> d   1      -0.368  -2.927   0.229  0.00  0.00    -0.284 OA
BRANCH  17  19
ATOM     19  O3  <0> d   1      -6.829  -2.154   0.510  0.00  0.00    -0.361 OA
ATOM     20  H20 <0> d   1      -7.334  -1.178   0.468  0.00  0.00     0.217 HD
ENDBRANCH  17  19
ENDBRANCH   4   8
BRANCH   1  21
ATOM     21  C7  <0> d   1       0.458   4.956   2.197  0.00  0.00     0.273 C 
BRANCH  21  22
ATOM     22  C4  <0> d   1      -0.718   5.899   2.218  0.00  0.00    -0.033 A 
ATOM     23  C3  <0> d   1      -1.784   5.656   3.064  0.00  0.00     0.009 A 
ATOM     24  C2  <0> d   1      -2.862   6.520   3.083  0.00  0.00     0.001 A 
ATOM     25  C1  <0> d   1      -2.875   7.628   2.256  0.00  0.00     0.000 A 
ATOM     26  C6  <0> d   1      -1.809   7.871   1.410  0.00  0.00     0.001 A 
ATOM     27  C5  <0> d   1      -0.729   7.008   1.394  0.00  0.00     0.009 A 
ENDBRANCH  21  22
ENDBRANCH   1  21
TORSDOF 4
