REMARK  4 active torsions:
REMARK  status: ('A' for Active; 'I' for Inactive)
REMARK    1  A    between atoms: C4_4  and  O3_27 
REMARK    2  A    between atoms: C5_5  and  C16_19 
REMARK    3  A    between atoms: C10_11  and  C11_12 
REMARK    4  A    between atoms: C16_19  and  N2_20 
ROOT
ATOM      1  C1  <0> d   1      -0.075   1.509   0.016  0.00  0.00     0.049 C 
ATOM      2  C2  <0> d   1      -0.065   0.002   0.006  0.00  0.00    -0.042 A 
ATOM      3  C3  <0> d   1      -0.086  -0.675  -1.181  0.00  0.00     0.045 A 
ATOM      4  C4  <0> d   1      -0.077  -2.067  -1.193  0.00  0.00     0.077 A 
ATOM      5  C5  <0> d   1      -0.047  -2.781  -0.006  0.00  0.00     0.038 A 
ATOM      6  C6  <0> d   1      -0.025  -2.109   1.209  0.00  0.00     0.102 A 
ATOM      7  C7  <0> d   1      -0.029  -0.705   1.208  0.00  0.00     0.057 A 
ATOM      8  C8  <0> d   1       0.005  -0.288   2.622  0.00  0.00     0.219 A 
ATOM      9  O1  <0> d   1       0.008   0.847   3.065  0.00  0.00    -0.284 OA
ATOM     10  C9  <0> d   1       0.033  -1.551   3.378  0.00  0.00     0.128 A 
ATOM     11  C10 <0> d   1       0.069  -1.676   4.727  0.00  0.00     0.054 C 
ATOM     12  O2  <0> d   1       0.004  -2.564   2.481  0.00  0.00    -0.305 OA
ENDROOT
BRANCH   5  13
ATOM     13  C16 <0> d   1      -0.038  -4.288  -0.034  0.00  0.00     0.317 C 
BRANCH  13  14
ATOM     14  N2  <0> d   1       1.349  -4.769  -0.073  0.00  0.00     0.096 N 
ATOM     15  C20 <0> d   1       1.409  -6.222   0.137  0.00  0.00     0.303 C 
ATOM     16  C19 <0> d   1       2.872  -6.671   0.169  0.00  0.00     0.302 C 
ATOM     17  N3  <0> d   1       3.524  -6.297  -1.095  0.00  0.00     0.087 N 
ATOM     18  C18 <0> d   1       3.464  -4.844  -1.305  0.00  0.00     0.302 C 
ATOM     19  C21 <0> d   1       4.911  -6.778  -1.133  0.00  0.00     0.310 C 
ATOM     20  C17 <0> d   1       2.001  -4.396  -1.336  0.00  0.00     0.303 C 
ENDBRANCH  13  14
ENDBRANCH   5  13
BRANCH   4  21
ATOM     21  O3  <0> d   1      -0.098  -2.729  -2.377  0.00  0.00    -0.360 OA
ATOM     22  H23 <0> d   1       0.779  -2.916  -2.740  0.00  0.00     0.217 HD
ENDBRANCH   4  21
BRANCH  11  23
ATOM     23  C11 <0> d   1      -0.017  -3.007   5.344  0.00  0.00    -0.016 A 
ATOM     24  C15 <0> d   1      -0.109  -3.144   6.734  0.00  0.00     0.127 A 
ATOM     25  N1  <0> d   1      -0.192  -4.337   7.284  0.00  0.00    -0.272 NA
ATOM     26  C14 <0> d   1      -0.182  -5.441   6.562  0.00  0.00     0.116 A 
ATOM     27  C13 <0> d   1      -0.088  -5.392   5.182  0.00  0.00     0.020 A 
ATOM     28  C12 <0> d   1      -0.004  -4.165   4.551  0.00  0.00     0.014 A 
ENDBRANCH  11  23
TORSDOF 4
