REMARK  8 active torsions:
REMARK  status: ('A' for Active; 'I' for Inactive)
REMARK    1  A    between atoms: C2_2  and  C3_3 
REMARK    2  A    between atoms: C3_3  and  N1_4 
REMARK    3  A    between atoms: N1_4  and  C4_5 
REMARK    4  A    between atoms: N1_4  and  C7_8 
REMARK    5  A    between atoms: C4_5  and  C5_6 
REMARK    6  A    between atoms: C7_8  and  C8_9 
REMARK    7  A    between atoms: C9_10  and  O4_31 
REMARK    8  A    between atoms: C15_17  and  C16_18 
ROOT
ATOM      1  C8  <0> d   1       1.018  -1.091  -0.429  0.00  0.00     0.036 A 
ATOM      2  C9  <0> d   1       2.392  -0.909  -0.460  0.00  0.00     0.076 A 
ATOM      3  C10 <0> d   1       2.934   0.344  -0.729  0.00  0.00     0.045 A 
ATOM      4  C11 <0> d   1       2.113   1.411  -0.965  0.00  0.00    -0.042 A 
ATOM      5  C12 <0> d   1       0.729   1.243  -0.936  0.00  0.00     0.057 A 
ATOM      6  C13 <0> d   1       0.170  -0.017  -0.667  0.00  0.00     0.101 A 
ATOM      7  O1  <0> d   1      -1.178   0.068  -0.694  0.00  0.00    -0.305 OA
ATOM      8  C14 <0> d   1      -1.597   1.326  -0.969  0.00  0.00     0.129 A 
ATOM      9  C15 <0> d   1      -2.891   1.738  -1.072  0.00  0.00     0.078 C 
ATOM     10  C24 <0> d   1      -0.404   2.164  -1.143  0.00  0.00     0.219 A 
ATOM     11  O3  <0> d   1      -0.360   3.355  -1.401  0.00  0.00    -0.284 OA
ATOM     12  C25 <0> d   1       2.703   2.768  -1.254  0.00  0.00     0.049 C 
ENDROOT
BRANCH   9  13
ATOM     13  C16 <0> d   1      -3.946   0.812  -0.883  0.00  0.00     0.079 A 
ATOM     14  O2  <0> d   1      -3.792  -0.500  -0.605  0.00  0.00    -0.310 OA
ATOM     15  C23 <0> d   1      -5.000  -1.088  -0.485  0.00  0.00     0.086 A 
ATOM     16  C18 <0> d   1      -5.977  -0.100  -0.709  0.00  0.00     0.002 A 
ATOM     17  C22 <0> d   1      -5.400  -2.389  -0.208  0.00  0.00     0.039 A 
ATOM     18  C17 <0> d   1      -5.275   1.106  -0.961  0.00  0.00     0.051 A 
ATOM     19  C19 <0> d   1      -7.335  -0.435  -0.651  0.00  0.00     0.033 A 
ATOM     20  C20 <0> d   1      -7.705  -1.721  -0.377  0.00  0.00     0.011 A 
ATOM     21  C21 <0> d   1      -6.743  -2.699  -0.157  0.00  0.00     0.022 A 
ATOM     22 Br1  <0> d   1      -9.539  -2.175  -0.299  0.00  0.00    -0.051 Br
ENDBRANCH   9  13
BRANCH   1  23
ATOM     23  C7  <0> d   1       0.445  -2.454  -0.138  0.00  0.00     0.279 C 
BRANCH  23  24
ATOM     24  N1  <0> d   1       0.268  -3.190  -1.397  0.00  0.00    -0.067 N 
ATOM     25  H26 <0> d   1      -0.303  -2.549  -2.086  0.00  0.00     0.280 HD
BRANCH  24  26
ATOM     26  C3  <0> d   1       1.564  -3.482  -2.023  0.00  0.00     0.234 C 
BRANCH  26  27
ATOM     27  C2  <0> d   1       2.348  -4.457  -1.142  0.00  0.00     0.023 C 
ATOM     28  C1  <0> d   1       3.748  -4.657  -1.723  0.00  0.00     0.007 C 
ENDBRANCH  26  27
ENDBRANCH  24  26
BRANCH  24  29
ATOM     29  C4  <0> d   1      -0.503  -4.422  -1.183  0.00  0.00     0.234 C 
BRANCH  29  30
ATOM     30  C5  <0> d   1      -0.960  -4.979  -2.533  0.00  0.00     0.023 C 
ATOM     31  C6  <0> d   1      -1.870  -6.187  -2.304  0.00  0.00     0.007 C 
ENDBRANCH  29  30
ENDBRANCH  24  29
ENDBRANCH  23  24
ENDBRANCH   1  23
BRANCH   2  32
ATOM     32  O4  <0> d   1       3.215  -1.963  -0.227  0.00  0.00    -0.360 OA
ATOM     33  H27 <0> d   1       4.306  -1.824  -0.250  0.00  0.00     0.217 HD
ENDBRANCH   2  32
TORSDOF 8
