REMARK  9 active torsions:
REMARK  status: ('A' for Active; 'I' for Inactive)
REMARK    1  A    between atoms: O1_2  and  C2_3 
REMARK    2  A    between atoms: C5_6  and  C8_9 
REMARK    3  A    between atoms: C10_14  and  C11_15 
REMARK    4  A    between atoms: C14_18  and  O3_22 
REMARK    5  A    between atoms: C16_20  and  O2_21 
REMARK    6  A    between atoms: O3_22  and  C17_23 
REMARK    7  A    between atoms: C17_23  and  C18_24 
REMARK    8  A    between atoms: C18_24  and  N3_25 
REMARK    9  A    between atoms: N4_28  and  C23_31 
ROOT
ATOM      1  C11 <0> d   1      -3.930  -4.453  -1.433  0.00  0.00     0.026 A 
ATOM      2  C12 <0> d   1      -4.224  -4.089  -2.748  0.00  0.00     0.019 A 
ATOM      3  C13 <0> d   1      -3.486  -4.613  -3.788  0.00  0.00     0.038 A 
ATOM      4  C14 <0> d   1      -2.451  -5.504  -3.531  0.00  0.00     0.071 A 
ATOM      5  C15 <0> d   1      -2.152  -5.871  -2.228  0.00  0.00     0.074 A 
ATOM      6  C16 <0> d   1      -2.882  -5.347  -1.175  0.00  0.00     0.081 A 
ENDROOT
BRANCH   4   7
ATOM      7  O3  <0> d   1      -1.728  -6.016  -4.561  0.00  0.00    -0.349 OA
BRANCH   7   8
ATOM      8  C17 <0> d   1      -2.089  -5.596  -5.879  0.00  0.00     0.203 C 
BRANCH   8   9
ATOM      9  C18 <0> d   1      -1.171  -6.273  -6.899  0.00  0.00     0.261 C 
BRANCH   9  10
ATOM     10  N3  <0> d   1      -1.384  -7.726  -6.861  0.00  0.00    -0.066 N 
ATOM     11  C22 <0> d   1      -2.740  -8.033  -7.334  0.00  0.00     0.254 C 
ATOM     12  C21 <0> d   1      -3.003  -9.535  -7.187  0.00  0.00     0.150 C 
ATOM     13  N4  <0> d   1      -1.936 -10.267  -7.886  0.00  0.00    -0.375 N 
ATOM     14  C20 <0> d   1      -0.540  -9.907  -7.591  0.00  0.00     0.150 C 
ATOM     15  C19 <0> d   1      -0.393  -8.387  -7.719  0.00  0.00     0.254 C 
ATOM     16  H30 <0> d   1      -1.278  -8.056  -5.913  0.00  0.00     0.280 HD
BRANCH  13  17
ATOM     17  C23 <0> d   1      -2.239 -11.275  -8.807  0.00  0.00     0.069 A 
ATOM     18  C28 <0> d   1      -2.413 -10.963 -10.151  0.00  0.00     0.142 A 
ATOM     19  C27 <0> d   1      -2.707 -11.965 -11.058  0.00  0.00     0.044 A 
ATOM     20  F1  <0> d   1      -2.288  -9.685 -10.570  0.00  0.00    -0.204 F 
ATOM     21  C26 <0> d   1      -2.839 -13.272 -10.628  0.00  0.00     0.003 A 
ATOM     22  C25 <0> d   1      -2.673 -13.584  -9.291  0.00  0.00     0.002 A 
ATOM     23  C24 <0> d   1      -2.373 -12.590  -8.380  0.00  0.00     0.032 A 
ENDBRANCH  13  17
ENDBRANCH   9  10
ENDBRANCH   8   9
ENDBRANCH   7   8
ENDBRANCH   4   7
BRANCH   6  24
ATOM     24  O2  <0> d   1      -2.587  -5.701   0.102  0.00  0.00    -0.360 OA
ATOM     25  H13 <0> d   1      -3.066  -6.481   0.414  0.00  0.00     0.217 HD
ENDBRANCH   6  24
BRANCH   1  26
ATOM     26  C10 <0> d   1      -4.718  -3.893  -0.316  0.00  0.00     0.075 A 
ATOM     27  C8  <0> d   1      -5.570  -4.594   0.527  0.00  0.00     0.022 A 
ATOM     28  C9  <0> d   1      -6.103  -3.671   1.444  0.00  0.00     0.153 A 
ATOM     29  N1  <0> d   1      -5.614  -2.489   1.176  0.00  0.00    -0.186 NA
ATOM     30  N2  <0> d   1      -4.748  -2.589   0.081  0.00  0.00    -0.277 N 
ATOM     31  H1  <0> d   1      -4.253  -1.859  -0.322  0.00  0.00     0.189 HD
BRANCH  27  32
ATOM     32  C5  <0> d   1      -5.860  -6.047   0.474  0.00  0.00    -0.022 A 
ATOM     33  C4  <0> d   1      -5.659  -6.841   1.602  0.00  0.00     0.015 A 
ATOM     34  C3  <0> d   1      -5.929  -8.193   1.549  0.00  0.00     0.037 A 
ATOM     35  C2  <0> d   1      -6.402  -8.762   0.375  0.00  0.00     0.068 A 
ATOM     36  C7  <0> d   1      -6.598  -7.975  -0.752  0.00  0.00     0.037 A 
ATOM     37  C6  <0> d   1      -6.334  -6.622  -0.704  0.00  0.00     0.015 A 
BRANCH  35  38
ATOM     38  O1  <0> d   1      -6.668 -10.094   0.326  0.00  0.00    -0.356 OA
ATOM     39  C1  <0> d   1      -6.444 -10.845   1.522  0.00  0.00     0.210 C 
ENDBRANCH  35  38
ENDBRANCH  27  32
ENDBRANCH   1  26
TORSDOF 9
