REMARK  5 active torsions:
REMARK  status: ('A' for Active; 'I' for Inactive)
REMARK    1  A    between atoms: C8_8  and  C11_13 
REMARK    2  A    between atoms: C11_13  and  N1_14 
REMARK    3  A    between atoms: N2_17  and  C16_20 
REMARK    4  A    between atoms: C16_20  and  C17_21 
REMARK    5  A    between atoms: C18_22  and  C19_23 
ROOT
ATOM      1  N1  <0> d   1       1.428  -1.797   4.133  0.00  0.00    -0.064 N 
ATOM      2  C12 <0> d   1       2.209  -3.024   4.337  0.00  0.00     0.265 C 
ATOM      3  C13 <0> d   1       3.648  -2.656   4.705  0.00  0.00     0.300 C 
ATOM      4  N2  <0> d   1       3.646  -1.846   5.931  0.00  0.00     0.095 N 
ATOM      5  C14 <0> d   1       2.847  -0.626   5.749  0.00  0.00     0.300 C 
ATOM      6  C15 <0> d   1       1.414  -1.010   5.373  0.00  0.00     0.265 C 
ATOM      7  H27 <0> d   1       1.845  -1.252   3.393  0.00  0.00     0.280 HD
ENDROOT
BRANCH   1   8
ATOM      8  C11 <0> d   1       0.051  -2.150   3.762  0.00  0.00     0.274 C 
BRANCH   8   9
ATOM      9  C8  <0> d   1       0.053  -2.850   2.428  0.00  0.00    -0.014 A 
ATOM     10  C6  <0> d   1       0.037  -2.087   1.176  0.00  0.00     0.006 A 
ATOM     11  C5  <0> d   1       0.041  -2.781  -0.046  0.00  0.00     0.090 A 
ATOM     12  C7  <0> d   1       0.023  -0.689   1.185  0.00  0.00     0.021 A 
ATOM     13  C4  <0> d   1       0.025  -2.065  -1.236  0.00  0.00     0.039 A 
ATOM     14  O2  <0> d   1       0.059  -4.131  -0.052  0.00  0.00    -0.275 OA
ATOM     15  C3  <0> d   1       0.006  -0.686  -1.206  0.00  0.00     0.009 A 
ATOM     16  C2  <0> d   1       0.002  -0.004   0.002  0.00  0.00    -0.061 A 
ATOM     17  C1  <0> d   1      -0.018   1.503   0.010  0.00  0.00     0.048 C 
ATOM     18  C10 <0> d   1       0.074  -4.837   1.089  0.00  0.00     0.288 A 
ATOM     19  C9  <0> d   1       0.072  -4.205   2.351  0.00  0.00     0.092 A 
ATOM     20  O1  <0> d   1       0.091  -6.053   1.034  0.00  0.00    -0.260 OA
ENDBRANCH   8   9
ENDBRANCH   1   8
BRANCH   4  21
ATOM     21  C16 <0> d   1       5.016  -1.520   6.349  0.00  0.00     0.300 C 
BRANCH  21  22
ATOM     22  C17 <0> d   1       4.989  -0.907   7.726  0.00  0.00     0.004 C 
ATOM     23  C18 <0> d   1       5.719  -1.433   8.700  0.00  0.00     0.009 C 
BRANCH  23  24
ATOM     24  C19 <0> d   1       5.693  -0.832  10.050  0.00  0.00    -0.036 A 
ATOM     25  C24 <0> d   1       6.460  -1.382  11.077  0.00  0.00     0.011 A 
ATOM     26  C23 <0> d   1       6.436  -0.812  12.333  0.00  0.00     0.001 A 
ATOM     27  C22 <0> d   1       5.643   0.295  12.579  0.00  0.00     0.000 A 
ATOM     28  C21 <0> d   1       4.875   0.842  11.566  0.00  0.00     0.001 A 
ATOM     29  C20 <0> d   1       4.895   0.285  10.304  0.00  0.00     0.011 A 
ENDBRANCH  23  24
ENDBRANCH  21  22
ENDBRANCH   4  21
TORSDOF 5
