REMARK  7 active torsions:
REMARK  status: ('A' for Active; 'I' for Inactive)
REMARK    1  A    between atoms: C5_5  and  C18_21 
REMARK    2  A    between atoms: C10_11  and  C11_12 
REMARK    3  A    between atoms: C14_15  and  O2_18 
REMARK    4  A    between atoms: C18_21  and  N1_22 
REMARK    5  A    between atoms: N2_25  and  C23_28 
REMARK    6  A    between atoms: C23_28  and  C24_29 
REMARK    7  A    between atoms: C24_29  and  O4_30 
ROOT
ATOM      1  C1  <0> d   1       2.410   1.637   3.523  0.00  0.00     0.049 C 
ATOM      2  C2  <0> d   1       1.933   1.505   2.099  0.00  0.00    -0.042 A 
ATOM      3  C3  <0> d   1       0.682   1.021   1.839  0.00  0.00     0.048 A 
ATOM      4  C4  <0> d   1       0.242   0.893   0.524  0.00  0.00     0.118 A 
ATOM      5  C5  <0> d   1       1.058   1.265  -0.532  0.00  0.00     0.039 A 
ATOM      6  C6  <0> d   1       2.330   1.765  -0.284  0.00  0.00     0.102 A 
ATOM      7  C7  <0> d   1       2.766   1.883   1.046  0.00  0.00     0.057 A 
ATOM      8  C8  <0> d   1       4.132   2.434   0.988  0.00  0.00     0.219 A 
ATOM      9  O1  <0> d   1       4.873   2.692   1.921  0.00  0.00    -0.284 OA
ATOM     10  C9  <0> d   1       4.402   2.602  -0.447  0.00  0.00     0.128 A 
ATOM     11  C10 <0> d   1       5.545   3.084  -0.998  0.00  0.00     0.053 C 
ATOM     12  O3  <0> d   1       3.302   2.189  -1.121  0.00  0.00    -0.305 OA
ATOM     13  O5  <0> d   1      -1.000   0.406   0.275  0.00  0.00    -0.191 OA
ENDROOT
BRANCH   5  14
ATOM     14  C18 <0> d   1       0.566   1.128  -1.950  0.00  0.00     0.279 C 
BRANCH  14  15
ATOM     15  N1  <0> d   1      -0.109   2.368  -2.356  0.00  0.00    -0.064 N 
ATOM     16  C22 <0> d   1      -0.393   2.365  -3.798  0.00  0.00     0.265 C 
ATOM     17  C21 <0> d   1      -1.022   3.702  -4.194  0.00  0.00     0.300 C 
ATOM     18  N2  <0> d   1      -2.253   3.911  -3.418  0.00  0.00     0.093 N 
ATOM     19  C20 <0> d   1      -1.969   3.914  -1.976  0.00  0.00     0.300 C 
ATOM     20  C19 <0> d   1      -1.340   2.576  -1.580  0.00  0.00     0.265 C 
ATOM     21  H28 <0> d   1       0.571   3.206  -2.145  0.00  0.00     0.280 HD
BRANCH  18  22
ATOM     22  C23 <0> d   1      -2.927   5.151  -3.825  0.00  0.00     0.298 C 
BRANCH  22  23
ATOM     23  C24 <0> d   1      -3.642   4.929  -5.159  0.00  0.00     0.194 C 
BRANCH  23  24
ATOM     24  O4  <0> d   1      -4.667   3.947  -4.993  0.00  0.00    -0.399 OA
ATOM     25  H27 <0> d   1      -5.292   3.654  -5.849  0.00  0.00     0.209 HD
ENDBRANCH  23  24
ENDBRANCH  22  23
ENDBRANCH  18  22
ENDBRANCH  14  15
ENDBRANCH   5  14
BRANCH  11  26
ATOM     26  C11 <0> d   1       5.630   3.296  -2.448  0.00  0.00    -0.033 A 
ATOM     27  C16 <0> d   1       6.772   3.882  -3.007  0.00  0.00     0.014 A 
ATOM     28  C15 <0> d   1       6.846   4.078  -4.367  0.00  0.00     0.037 A 
ATOM     29  C14 <0> d   1       5.789   3.696  -5.186  0.00  0.00     0.068 A 
ATOM     30  C13 <0> d   1       4.652   3.113  -4.636  0.00  0.00     0.037 A 
ATOM     31  C12 <0> d   1       4.571   2.906  -3.278  0.00  0.00     0.014 A 
BRANCH  29  32
ATOM     32  O2  <0> d   1       5.867   3.891  -6.527  0.00  0.00    -0.356 OA
ATOM     33  C17 <0> d   1       4.746   3.475  -7.309  0.00  0.00     0.210 C 
ENDBRANCH  29  32
ENDBRANCH  11  26
TORSDOF 7
