REMARK  7 active torsions:
REMARK  status: ('A' for Active; 'I' for Inactive)
REMARK    1  A    between atoms: C2_2  and  N1_3 
REMARK    2  A    between atoms: N2_6  and  C7_9 
REMARK    3  A    between atoms: C7_9  and  C8_10 
REMARK    4  A    between atoms: C14_17  and  C24_30 
REMARK    5  A    between atoms: C15_18  and  O3_21 
REMARK    6  A    between atoms: O3_21  and  C17_22 
REMARK    7  A    between atoms: C20_25  and  O4_28 
ROOT
ATOM      1  C8  <0> d   1      -1.088   7.581  -0.166  0.00  0.00     0.041 A 
ATOM      2  C9  <0> d   1      -1.067   8.343   0.990  0.00  0.00     0.118 A 
ATOM      3  C10 <0> d   1      -1.073   7.732   2.242  0.00  0.00     0.041 A 
ATOM      4  C11 <0> d   1      -1.101   6.371   2.346  0.00  0.00     0.021 A 
ATOM      5  C12 <0> d   1      -1.123   5.589   1.191  0.00  0.00     0.052 A 
ATOM      6  C13 <0> d   1      -1.116   6.197  -0.077  0.00  0.00     0.101 A 
ATOM      7  O1  <0> d   1      -1.137   5.431  -1.187  0.00  0.00    -0.301 OA
ATOM      8  C14 <0> d   1      -1.165   4.092  -1.135  0.00  0.00     0.197 A 
ATOM      9  C15 <0> d   1      -1.174   3.408   0.026  0.00  0.00     0.165 A 
ATOM     10  C16 <0> d   1      -1.159   4.118   1.260  0.00  0.00     0.221 A 
ATOM     11  O2  <0> d   1      -1.171   3.532   2.330  0.00  0.00    -0.284 OA
ATOM     12  O5  <0> d   1      -1.039   9.698   0.902  0.00  0.00    -0.191 OA
ENDROOT
BRANCH   1  13
ATOM     13  C7  <0> d   1      -1.080   8.252  -1.515  0.00  0.00     0.317 C 
BRANCH  13  14
ATOM     14  N2  <0> d   1      -2.463   8.499  -1.947  0.00  0.00     0.096 N 
ATOM     15  C4  <0> d   1      -2.497   9.359  -3.138  0.00  0.00     0.303 C 
ATOM     16  C3  <0> d   1      -3.952   9.657  -3.507  0.00  0.00     0.302 C 
ATOM     17  N1  <0> d   1      -4.660   8.393  -3.753  0.00  0.00     0.091 N 
ATOM     18  C6  <0> d   1      -4.626   7.533  -2.562  0.00  0.00     0.302 C 
ATOM     19  C5  <0> d   1      -3.171   7.236  -2.193  0.00  0.00     0.303 C 
BRANCH  17  20
ATOM     20  C2  <0> d   1      -6.043   8.640  -4.185  0.00  0.00     0.268 C 
ATOM     21  C1  <0> d   1      -6.668   7.330  -4.668  0.00  0.00     0.037 C 
ENDBRANCH  17  20
ENDBRANCH  13  14
ENDBRANCH   1  13
BRANCH   8  22
ATOM     22  C24 <0> d   1      -1.187   3.320  -2.429  0.00  0.00     0.442 C 
ATOM     23  F1  <0> d   1      -2.512   3.108  -2.823  0.00  0.00    -0.164 F 
ATOM     24  F2  <0> d   1      -0.516   4.048  -3.418  0.00  0.00    -0.164 F 
ATOM     25  F3  <0> d   1      -0.552   2.087  -2.246  0.00  0.00    -0.164 F 
ENDBRANCH   8  22
BRANCH   9  26
ATOM     26  O3  <0> d   1      -1.203   2.047   0.019  0.00  0.00    -0.304 OA
BRANCH  26  27
ATOM     27  C17 <0> d   1      -0.017   1.383   0.010  0.00  0.00     0.076 A 
ATOM     28  C22 <0> d   1       0.002  -0.004   0.002  0.00  0.00     0.040 A 
ATOM     29  C21 <0> d   1       1.208  -0.678  -0.013  0.00  0.00     0.039 A 
ATOM     30  C20 <0> d   1       2.399   0.032  -0.021  0.00  0.00     0.068 A 
ATOM     31  C19 <0> d   1       2.381   1.419  -0.013  0.00  0.00     0.039 A 
ATOM     32  C18 <0> d   1       1.175   2.093   0.002  0.00  0.00     0.040 A 
BRANCH  30  33
ATOM     33  O4  <0> d   1       3.586  -0.632  -0.036  0.00  0.00    -0.356 OA
ATOM     34  C23 <0> d   1       4.774   0.162  -0.043  0.00  0.00     0.210 C 
ENDBRANCH  30  33
ENDBRANCH  26  27
ENDBRANCH   9  26
TORSDOF 7
