REMARK  12 active torsions:
REMARK  status: ('A' for Active; 'I' for Inactive)
REMARK    1  A    between atoms: O1_2  and  C2_3 
REMARK    2  A    between atoms: C2_3  and  C3_4 
REMARK    3  A    between atoms: C3_4  and  N1_5 
REMARK    4  A    between atoms: N1_5  and  C4_6 
REMARK    5  A    between atoms: N1_5  and  C7_10 
REMARK    6  A    between atoms: C4_6  and  C5_7 
REMARK    7  A    between atoms: C5_7  and  O2_8 
REMARK    8  A    between atoms: C7_10  and  C8_11 
REMARK    9  A    between atoms: C15_19  and  C16_20 
REMARK   10  A    between atoms: C18_22  and  O6_30 
REMARK   11  A    between atoms: C19_23  and  O5_28 
REMARK   12  A    between atoms: C20_24  and  O4_26 
ROOT
ATOM      1  C8  <0> d   1      -0.834  -6.218   2.842  0.00  0.00     0.039 A 
ATOM      2  C9  <0> d   1       0.332  -6.863   3.220  0.00  0.00     0.118 A 
ATOM      3  C10 <0> d   1       0.661  -7.000   4.566  0.00  0.00     0.041 A 
ATOM      4  C11 <0> d   1      -0.167  -6.497   5.530  0.00  0.00     0.021 A 
ATOM      5  C12 <0> d   1      -1.345  -5.845   5.163  0.00  0.00     0.051 A 
ATOM      6  C13 <0> d   1      -1.684  -5.696   3.809  0.00  0.00     0.101 A 
ATOM      7  O3  <0> d   1      -2.855  -5.031   3.704  0.00  0.00    -0.305 OA
ATOM      8  C14 <0> d   1      -3.357  -4.699   4.917  0.00  0.00     0.127 A 
ATOM      9  C15 <0> d   1      -4.514  -4.030   5.151  0.00  0.00     0.053 C 
ATOM     10  C25 <0> d   1      -2.426  -5.207   5.936  0.00  0.00     0.218 A 
ATOM     11  O7  <0> d   1      -2.521  -5.111   7.147  0.00  0.00    -0.284 OA
ATOM     12  O8  <0> d   1       1.161  -7.366   2.271  0.00  0.00    -0.191 OA
ENDROOT
BRANCH   9  13
ATOM     13  C16 <0> d   1      -5.430  -3.738   4.041  0.00  0.00    -0.028 A 
ATOM     14  C21 <0> d   1      -5.181  -4.264   2.768  0.00  0.00     0.051 A 
ATOM     15  C20 <0> d   1      -6.048  -3.992   1.728  0.00  0.00     0.105 A 
ATOM     16  C19 <0> d   1      -7.163  -3.185   1.942  0.00  0.00     0.135 A 
ATOM     17  C18 <0> d   1      -7.411  -2.654   3.205  0.00  0.00     0.105 A 
ATOM     18  C17 <0> d   1      -6.552  -2.926   4.252  0.00  0.00     0.051 A 
BRANCH  15  19
ATOM     19  O4  <0> d   1      -5.811  -4.509   0.492  0.00  0.00    -0.353 OA
ATOM     20  C22 <0> d   1      -4.649  -5.328   0.344  0.00  0.00     0.210 C 
ENDBRANCH  15  19
BRANCH  16  21
ATOM     21  O5  <0> d   1      -8.011  -2.914   0.914  0.00  0.00    -0.351 OA
ATOM     22  C23 <0> d   1      -7.727  -1.756   0.127  0.00  0.00     0.210 C 
ENDBRANCH  16  21
BRANCH  17  23
ATOM     23  O6  <0> d   1      -8.502  -1.867   3.409  0.00  0.00    -0.353 OA
ATOM     24  C24 <0> d   1      -8.637  -1.267   4.699  0.00  0.00     0.210 C 
ENDBRANCH  17  23
ENDBRANCH   9  13
BRANCH   1  25
ATOM     25  C7  <0> d   1      -1.177  -6.076   1.381  0.00  0.00     0.279 C 
BRANCH  25  26
ATOM     26  N1  <0> d   1      -0.704  -4.775   0.891  0.00  0.00    -0.063 N 
ATOM     27  H31 <0> d   1      -0.905  -4.693  -0.094  0.00  0.00     0.280 HD
BRANCH  26  28
ATOM     28  C3  <0> d   1      -1.387  -3.699   1.621  0.00  0.00     0.261 C 
BRANCH  28  29
ATOM     29  C2  <0> d   1      -0.989  -2.346   1.027  0.00  0.00     0.194 C 
BRANCH  29  30
ATOM     30  O1  <0> d   1      -1.468  -2.256  -0.317  0.00  0.00    -0.394 OA
ATOM     31  C1  <0> d   1      -1.147  -1.025  -0.967  0.00  0.00     0.201 C 
ENDBRANCH  29  30
ENDBRANCH  28  29
ENDBRANCH  26  28
BRANCH  26  32
ATOM     32  C4  <0> d   1       0.746  -4.668   1.106  0.00  0.00     0.261 C 
BRANCH  32  33
ATOM     33  C5  <0> d   1       1.470  -5.663   0.198  0.00  0.00     0.194 C 
BRANCH  33  34
ATOM     34  O2  <0> d   1       1.201  -5.344  -1.169  0.00  0.00    -0.394 OA
ATOM     35  C6  <0> d   1       1.835  -6.218  -2.106  0.00  0.00     0.201 C 
ENDBRANCH  33  34
ENDBRANCH  32  33
ENDBRANCH  26  32
ENDBRANCH  25  26
ENDBRANCH   1  25
TORSDOF 12
