REMARK  5 active torsions:
REMARK  status: ('A' for Active; 'I' for Inactive)
REMARK    1  A    between atoms: C2_2  and  N1_3 
REMARK    2  A    between atoms: N2_6  and  C7_9 
REMARK    3  A    between atoms: C7_9  and  C8_10 
REMARK    4  A    between atoms: C9_11  and  O3_28 
REMARK    5  A    between atoms: C15_18  and  C16_19 
ROOT
ATOM      1  C8  <0> d   1      -4.367  -4.161  -0.907  0.00  0.00     0.038 A 
ATOM      2  C9  <0> d   1      -4.444  -4.841  -2.113  0.00  0.00     0.076 A 
ATOM      3  C10 <0> d   1      -4.729  -6.203  -2.141  0.00  0.00     0.038 A 
ATOM      4  C11 <0> d   1      -4.936  -6.885  -0.976  0.00  0.00     0.021 A 
ATOM      5  C12 <0> d   1      -4.862  -6.214   0.245  0.00  0.00     0.051 A 
ATOM      6  C13 <0> d   1      -4.570  -4.841   0.287  0.00  0.00     0.101 A 
ATOM      7  O1  <0> d   1      -4.544  -4.419   1.570  0.00  0.00    -0.305 OA
ATOM      8  C14 <0> d   1      -4.799  -5.427   2.437  0.00  0.00     0.127 A 
ATOM      9  C15 <0> d   1      -4.846  -5.329   3.788  0.00  0.00     0.053 C 
ATOM     10  C23 <0> d   1      -5.029  -6.646   1.645  0.00  0.00     0.218 A 
ATOM     11  O2  <0> d   1      -5.287  -7.764   2.054  0.00  0.00    -0.284 OA
ENDROOT
BRANCH   1  12
ATOM     12  C7  <0> d   1      -4.058  -2.687  -0.892  0.00  0.00     0.317 C 
BRANCH  12  13
ATOM     13  N2  <0> d   1      -2.604  -2.492  -0.819  0.00  0.00     0.096 N 
ATOM     14  C4  <0> d   1      -2.250  -1.083  -1.040  0.00  0.00     0.303 C 
ATOM     15  C3  <0> d   1      -0.726  -0.936  -1.036  0.00  0.00     0.302 C 
ATOM     16  N1  <0> d   1      -0.194  -1.415   0.248  0.00  0.00     0.091 N 
ATOM     17  C6  <0> d   1      -0.548  -2.824   0.468  0.00  0.00     0.302 C 
ATOM     18  C5  <0> d   1      -2.072  -2.971   0.464  0.00  0.00     0.303 C 
BRANCH  16  19
ATOM     19  C2  <0> d   1       1.260  -1.220   0.320  0.00  0.00     0.268 C 
ATOM     20  C1  <0> d   1       1.574   0.277   0.336  0.00  0.00     0.037 C 
ENDBRANCH  16  19
ENDBRANCH  12  13
ENDBRANCH   1  12
BRANCH   2  21
ATOM     21  O3  <0> d   1      -4.240  -4.171  -3.276  0.00  0.00    -0.360 OA
ATOM     22  H26 <0> d   1      -3.317  -4.159  -3.566  0.00  0.00     0.217 HD
ENDBRANCH   2  21
BRANCH   9  23
ATOM     23  C16 <0> d   1      -4.747  -4.012   4.434  0.00  0.00    -0.033 A 
ATOM     24  C21 <0> d   1      -4.629  -3.917   5.825  0.00  0.00     0.012 A 
ATOM     25  C20 <0> d   1      -4.529  -2.678   6.421  0.00  0.00     0.007 A 
ATOM     26  C19 <0> d   1      -4.559  -1.530   5.649  0.00  0.00    -0.062 A 
ATOM     27  C18 <0> d   1      -4.681  -1.614   4.273  0.00  0.00     0.007 A 
ATOM     28  C22 <0> d   1      -4.456  -0.179   6.311  0.00  0.00     0.048 C 
ATOM     29  C17 <0> d   1      -4.775  -2.846   3.660  0.00  0.00     0.012 A 
ENDBRANCH   9  23
TORSDOF 5
