REMARK  6 active torsions:
REMARK  status: ('A' for Active; 'I' for Inactive)
REMARK    1  A    between atoms: O1_2  and  C2_3 
REMARK    2  A    between atoms: C4_5  and  C10_13 
REMARK    3  A    between atoms: C5_6  and  O3_11 
REMARK    4  A    between atoms: C7_8  and  O2_9 
REMARK    5  A    between atoms: C17_21  and  C19_24 
REMARK    6  A    between atoms: C19_24  and  N1_25 
ROOT
ATOM      1  C10 <0> d   1      -0.441   3.989   1.246  0.00  0.00     0.055 C 
ATOM      2  C11 <0> d   1       0.339   2.878   1.171  0.00  0.00     0.128 A 
ATOM      3  C12 <0> d   1       1.806   2.846   1.200  0.00  0.00     0.218 A 
ATOM      4  O4  <0> d   1       2.571   3.791   1.293  0.00  0.00    -0.284 OA
ATOM      5  C13 <0> d   1       2.148   1.416   1.089  0.00  0.00     0.051 A 
ATOM      6  C14 <0> d   1       3.359   0.724   1.057  0.00  0.00     0.021 A 
ATOM      7  C15 <0> d   1       3.362  -0.638   0.945  0.00  0.00     0.041 A 
ATOM      8  C16 <0> d   1       2.159  -1.335   0.862  0.00  0.00     0.118 A 
ATOM      9  C17 <0> d   1       0.950  -0.661   0.892  0.00  0.00     0.041 A 
ATOM     10  C18 <0> d   1       0.929   0.724   1.006  0.00  0.00     0.101 A 
ATOM     11  O5  <0> d   1      -0.096   1.602   1.051  0.00  0.00    -0.305 OA
ATOM     12  O7  <0> d   1       2.173  -2.688   0.751  0.00  0.00    -0.191 OA
ENDROOT
BRANCH   1  13
ATOM     13  C4  <0> d   1      -1.898   3.857   1.335  0.00  0.00     0.003 A 
ATOM     14  C3  <0> d   1      -2.472   2.631   1.701  0.00  0.00     0.054 A 
ATOM     15  C2  <0> d   1      -3.844   2.513   1.783  0.00  0.00     0.102 A 
ATOM     16  C7  <0> d   1      -4.660   3.610   1.502  0.00  0.00     0.104 A 
ATOM     17  C6  <0> d   1      -4.100   4.825   1.139  0.00  0.00     0.077 A 
ATOM     18  C5  <0> d   1      -2.725   4.959   1.058  0.00  0.00     0.081 A 
BRANCH  15  19
ATOM     19  O1  <0> d   1      -4.402   1.324   2.138  0.00  0.00    -0.353 OA
ATOM     20  C1  <0> d   1      -3.510   0.281   2.534  0.00  0.00     0.210 C 
ENDBRANCH  15  19
BRANCH  16  21
ATOM     21  O2  <0> d   1      -6.010   3.486   1.585  0.00  0.00    -0.353 OA
ATOM     22  C8  <0> d   1      -6.788   4.647   1.285  0.00  0.00     0.210 C 
ENDBRANCH  16  21
BRANCH  18  23
ATOM     23  O3  <0> d   1      -2.177   6.151   0.708  0.00  0.00    -0.355 OA
ATOM     24  C9  <0> d   1      -3.079   7.227   0.442  0.00  0.00     0.210 C 
ENDBRANCH  18  23
ENDBRANCH   1  13
BRANCH   9  25
ATOM     25  C19 <0> d   1      -0.344  -1.429   0.801  0.00  0.00     0.317 C 
BRANCH  25  26
ATOM     26  N1  <0> d   1      -0.661  -1.687  -0.610  0.00  0.00     0.097 N 
ATOM     27  C23 <0> d   1      -1.685  -2.735  -0.736  0.00  0.00     0.299 C 
ATOM     28  C22 <0> d   1      -1.942  -3.014  -2.219  0.00  0.00     0.198 C 
ATOM     29  O6  <0> d   1      -2.328  -1.799  -2.867  0.00  0.00    -0.388 OA
ATOM     30  C21 <0> d   1      -1.355  -0.756  -2.764  0.00  0.00     0.198 C 
ATOM     31  C20 <0> d   1      -1.091  -0.455  -1.286  0.00  0.00     0.299 C 
ENDBRANCH  25  26
ENDBRANCH   9  25
TORSDOF 6
