REMARK  5 active torsions:
REMARK  status: ('A' for Active; 'I' for Inactive)
REMARK    1  A    between atoms: O1_2  and  C2_3 
REMARK    2  A    between atoms: C5_6  and  C8_9 
REMARK    3  A    between atoms: C16_19  and  C17_20 
REMARK    4  A    between atoms: C17_20  and  N1_21 
REMARK    5  A    between atoms: C22_26  and  C23_27 
ROOT
ATOM      1  C8  <0> d   1      -2.405  -2.497   2.925  0.00  0.00     0.048 A 
ATOM      2  C9  <0> d   1      -1.927  -2.448   1.655  0.00  0.00     0.159 A 
ATOM      3  O2  <0> d   1      -1.215  -1.416   1.194  0.00  0.00    -0.320 OA
ATOM      4  C10 <0> d   1      -0.910  -0.336   1.940  0.00  0.00     0.100 A 
ATOM      5  C11 <0> d   1      -1.342  -0.251   3.276  0.00  0.00     0.050 A 
ATOM      6  C12 <0> d   1      -2.130  -1.367   3.829  0.00  0.00     0.197 A 
ATOM      7  O3  <0> d   1      -2.534  -1.355   4.979  0.00  0.00    -0.286 OA
ATOM      8  C13 <0> d   1      -1.027   0.867   4.050  0.00  0.00     0.021 A 
ATOM      9  C14 <0> d   1      -0.295   1.883   3.505  0.00  0.00     0.041 A 
ATOM     10  C15 <0> d   1       0.143   1.806   2.185  0.00  0.00     0.118 A 
ATOM     11  C16 <0> d   1      -0.167   0.706   1.403  0.00  0.00     0.039 A 
ATOM     12  O4  <0> d   1       0.875   2.821   1.659  0.00  0.00    -0.191 OA
ENDROOT
BRANCH  11  13
ATOM     13  C17 <0> d   1       0.307   0.638  -0.026  0.00  0.00     0.280 C 
BRANCH  13  14
ATOM     14  N1  <0> d   1      -0.633   1.366  -0.889  0.00  0.00    -0.059 N 
ATOM     15  C22 <0> d   1      -0.146   1.415  -2.274  0.00  0.00     0.223 C 
ATOM     16  C21 <0> d   1      -1.073   2.300  -3.110  0.00  0.00     0.038 C 
ATOM     17  C20 <0> d   1      -2.492   1.728  -3.068  0.00  0.00     0.004 C 
ATOM     18  C19 <0> d   1      -2.957   1.643  -1.612  0.00  0.00     0.028 C 
ATOM     19  C18 <0> d   1      -1.976   0.776  -0.819  0.00  0.00     0.236 C 
ATOM     20  H26 <0> d   1      -0.701   2.400  -0.521  0.00  0.00     0.281 HD
BRANCH  15  21
ATOM     21  C23 <0> d   1       1.248   1.985  -2.296  0.00  0.00    -0.010 A 
ATOM     22  C27 <0> d   1       1.544   3.138  -1.594  0.00  0.00     0.125 A 
ATOM     23  N2  <0> d   1       2.764   3.640  -1.604  0.00  0.00    -0.273 NA
ATOM     24  C26 <0> d   1       3.740   3.075  -2.286  0.00  0.00     0.116 A 
ATOM     25  C25 <0> d   1       3.518   1.923  -3.017  0.00  0.00     0.020 A 
ATOM     26  C24 <0> d   1       2.250   1.363  -3.026  0.00  0.00     0.012 A 
ENDBRANCH  15  21
ENDBRANCH  13  14
ENDBRANCH  11  13
BRANCH   1  27
ATOM     27  C5  <0> d   1      -3.191  -3.665   3.393  0.00  0.00    -0.020 A 
ATOM     28  C4  <0> d   1      -4.266  -4.131   2.637  0.00  0.00     0.015 A 
ATOM     29  C3  <0> d   1      -4.994  -5.218   3.074  0.00  0.00     0.037 A 
ATOM     30  C2  <0> d   1      -4.660  -5.846   4.266  0.00  0.00     0.068 A 
ATOM     31  C7  <0> d   1      -3.590  -5.384   5.021  0.00  0.00     0.037 A 
ATOM     32  C6  <0> d   1      -2.854  -4.301   4.586  0.00  0.00     0.015 A 
BRANCH  30  33
ATOM     33  O1  <0> d   1      -5.380  -6.915   4.694  0.00  0.00    -0.356 OA
ATOM     34  C1  <0> d   1      -4.981  -7.514   5.929  0.00  0.00     0.210 C 
ENDBRANCH  30  33
ENDBRANCH   1  27
TORSDOF 5
