REMARK  5 active torsions:
REMARK  status: ('A' for Active; 'I' for Inactive)
REMARK    1  A    between atoms: C4_4  and  O5_30 
REMARK    2  A    between atoms: C6_6  and  C11_13 
REMARK    3  A    between atoms: C11_13  and  N1_14 
REMARK    4  A    between atoms: N2_17  and  C16_20 
REMARK    5  A    between atoms: C16_20  and  C17_21 
ROOT
ATOM      1  N1  <0> d   1       8.045  -2.645   0.019  0.00  0.00     0.096 N 
ATOM      2  C12 <0> d   1       8.352  -1.286   0.484  0.00  0.00     0.303 C 
ATOM      3  C13 <0> d   1       7.325  -0.866   1.538  0.00  0.00     0.303 C 
ATOM      4  N2  <0> d   1       5.977  -0.928   0.957  0.00  0.00     0.096 N 
ATOM      5  C14 <0> d   1       5.670  -2.288   0.492  0.00  0.00     0.303 C 
ATOM      6  C15 <0> d   1       6.697  -2.708  -0.562  0.00  0.00     0.303 C 
ENDROOT
BRANCH   1   7
ATOM      7  C11 <0> d   1       9.054  -3.114  -0.940  0.00  0.00     0.312 C 
BRANCH   7   8
ATOM      8  C6  <0> d   1       8.654  -4.468  -1.469  0.00  0.00    -0.009 A 
ATOM      9  C5  <0> d   1       8.786  -5.667  -0.642  0.00  0.00     0.039 A 
ATOM     10  C4  <0> d   1       9.289  -5.593   0.667  0.00  0.00     0.079 A 
ATOM     11  C9  <0> d   1       8.401  -6.910  -1.175  0.00  0.00     0.093 A 
ATOM     12  C3  <0> d   1       9.400  -6.747   1.420  0.00  0.00     0.044 A 
ATOM     13  C2  <0> d   1       9.018  -7.968   0.888  0.00  0.00    -0.057 A 
ATOM     14  C1  <0> d   1       9.146  -9.217   1.722  0.00  0.00     0.048 C 
ATOM     15  C10 <0> d   1       8.523  -8.054  -0.397  0.00  0.00     0.045 A 
ATOM     16  O2  <0> d   1       7.916  -6.980  -2.433  0.00  0.00    -0.275 OA
ATOM     17  C8  <0> d   1       7.791  -5.884  -3.198  0.00  0.00     0.288 A 
ATOM     18  C7  <0> d   1       8.154  -4.606  -2.725  0.00  0.00     0.092 A 
ATOM     19  O1  <0> d   1       7.349  -5.995  -4.327  0.00  0.00    -0.260 OA
BRANCH  10  20
ATOM     20  O5  <0> d   1       9.663  -4.397   1.189  0.00  0.00    -0.360 OA
ATOM     21  H24 <0> d   1       9.573  -3.481   0.586  0.00  0.00     0.217 HD
ENDBRANCH  10  20
ENDBRANCH   7   8
ENDBRANCH   1   7
BRANCH   4  22
ATOM     22  C16 <0> d   1       4.968  -0.459   1.916  0.00  0.00     0.311 C 
BRANCH  22  23
ATOM     23  C17 <0> d   1       3.643  -0.304   1.216  0.00  0.00    -0.027 A 
ATOM     24  C22 <0> d   1       3.310   0.903   0.628  0.00  0.00     0.048 A 
ATOM     25  C21 <0> d   1       2.093   1.048  -0.017  0.00  0.00     0.105 A 
ATOM     26  C20 <0> d   1       1.206  -0.025  -0.071  0.00  0.00     0.105 A 
ATOM     27  O3  <0> d   1       1.533   2.111  -0.665  0.00  0.00    -0.323 OA
ATOM     28  C19 <0> d   1       1.546  -1.231   0.520  0.00  0.00     0.040 A 
ATOM     29  O4  <0> d   1       0.090   0.366  -0.754  0.00  0.00    -0.323 OA
ATOM     30  C18 <0> d   1       2.762  -1.368   1.162  0.00  0.00     0.012 A 
ATOM     31  C23 <0> d   1       0.129   1.806  -0.761  0.00  0.00     0.352 C 
ENDBRANCH  22  23
ENDBRANCH   4  22
TORSDOF 5
