REMARK  7 active torsions:
REMARK  status: ('A' for Active; 'I' for Inactive)
REMARK    1  A    between atoms: C2_2  and  N1_3 
REMARK    2  A    between atoms: N2_6  and  C7_9 
REMARK    3  A    between atoms: C7_9  and  C8_10 
REMARK    4  A    between atoms: C8_10  and  O1_11 
REMARK    5  A    between atoms: O1_11  and  C9_12 
REMARK    6  A    between atoms: C16_20  and  C18_23 
REMARK    7  A    between atoms: C21_26  and  O4_29 
ROOT
ATOM      1  C9  <0> d   1       4.746  -0.361   0.119  0.00  0.00     0.071 A 
ATOM      2  C10 <0> d   1       4.846   1.026   0.028  0.00  0.00     0.038 A 
ATOM      3  C11 <0> d   1       3.723   1.802   0.066  0.00  0.00     0.021 A 
ATOM      4  C12 <0> d   1       2.470   1.200   0.197  0.00  0.00     0.049 A 
ATOM      5  C13 <0> d   1       2.358  -0.198   0.289  0.00  0.00     0.091 A 
ATOM      6  C14 <0> d   1       3.510  -0.972   0.249  0.00  0.00     0.075 A 
ATOM      7  O2  <0> d   1       1.148  -0.776   0.416  0.00  0.00    -0.321 OA
ATOM      8  C15 <0> d   1       0.006  -0.085   0.461  0.00  0.00     0.159 A 
ATOM      9  C16 <0> d   1      -0.032   1.270   0.383  0.00  0.00     0.048 A 
ATOM     10  C17 <0> d   1       1.236   2.006   0.242  0.00  0.00     0.197 A 
ATOM     11  O3  <0> d   1       1.264   3.222   0.167  0.00  0.00    -0.286 OA
ENDROOT
BRANCH   1  12
ATOM     12  O1  <0> d   1       5.870  -1.121   0.080  0.00  0.00    -0.349 OA
BRANCH  12  13
ATOM     13  C8  <0> d   1       7.115  -0.430  -0.055  0.00  0.00     0.203 C 
BRANCH  13  14
ATOM     14  C7  <0> d   1       8.260  -1.445  -0.081  0.00  0.00     0.261 C 
BRANCH  14  15
ATOM     15  N2  <0> d   1       8.148  -2.280  -1.284  0.00  0.00    -0.066 N 
ATOM     16  C4  <0> d   1       8.583  -1.544  -2.479  0.00  0.00     0.265 C 
ATOM     17  C3  <0> d   1       8.377  -2.419  -3.717  0.00  0.00     0.300 C 
ATOM     18  N1  <0> d   1       9.138  -3.667  -3.564  0.00  0.00     0.091 N 
ATOM     19  C6  <0> d   1       8.702  -4.403  -2.369  0.00  0.00     0.300 C 
ATOM     20  C5  <0> d   1       8.909  -3.528  -1.131  0.00  0.00     0.265 C 
ATOM     21  H29 <0> d   1       7.088  -2.543  -1.414  0.00  0.00     0.280 HD
BRANCH  18  22
ATOM     22  C2  <0> d   1       9.025  -4.503  -4.767  0.00  0.00     0.268 C 
ATOM     23  C1  <0> d   1      10.019  -5.663  -4.676  0.00  0.00     0.037 C 
ENDBRANCH  18  22
ENDBRANCH  14  15
ENDBRANCH  13  14
ENDBRANCH  12  13
ENDBRANCH   1  12
BRANCH   9  24
ATOM     24  C18 <0> d   1      -1.325   1.994   0.431  0.00  0.00    -0.020 A 
ATOM     25  C23 <0> d   1      -2.375   1.606  -0.398  0.00  0.00     0.015 A 
ATOM     26  C22 <0> d   1      -3.577   2.281  -0.351  0.00  0.00     0.037 A 
ATOM     27  C21 <0> d   1      -3.741   3.348   0.522  0.00  0.00     0.068 A 
ATOM     28  C20 <0> d   1      -2.697   3.738   1.350  0.00  0.00     0.037 A 
ATOM     29  C19 <0> d   1      -1.495   3.062   1.311  0.00  0.00     0.015 A 
BRANCH  27  30
ATOM     30  O4  <0> d   1      -4.926   4.012   0.567  0.00  0.00    -0.356 OA
ATOM     31  C24 <0> d   1      -5.026   5.099   1.489  0.00  0.00     0.210 C 
ENDBRANCH  27  30
ENDBRANCH   9  24
TORSDOF 7
