REMARK  7 active torsions:
REMARK  status: ('A' for Active; 'I' for Inactive)
REMARK    1  A    between atoms: O1_2  and  C2_3 
REMARK    2  A    between atoms: C6_7  and  C8_9 
REMARK    3  A    between atoms: C15_17  and  C17_20 
REMARK    4  A    between atoms: C17_20  and  N1_21 
REMARK    5  A    between atoms: N2_24  and  C22_27 
REMARK    6  A    between atoms: C22_27  and  C23_28 
REMARK    7  A    between atoms: C23_28  and  O4_29 
ROOT
ATOM      1  C8  <0> d   1       4.203   2.011   0.769  0.00  0.00     0.053 C 
ATOM      2  C9  <0> d   1       4.141   3.349   0.557  0.00  0.00     0.127 A 
ATOM      3  C10 <0> d   1       5.286   4.269   0.462  0.00  0.00     0.218 A 
ATOM      4  O2  <0> d   1       6.471   3.998   0.556  0.00  0.00    -0.284 OA
ATOM      5  C11 <0> d   1       4.679   5.591   0.226  0.00  0.00     0.051 A 
ATOM      6  C12 <0> d   1       5.213   6.868   0.047  0.00  0.00     0.021 A 
ATOM      7  C13 <0> d   1       4.380   7.933  -0.151  0.00  0.00     0.041 A 
ATOM      8  C14 <0> d   1       3.000   7.746  -0.175  0.00  0.00     0.118 A 
ATOM      9  C15 <0> d   1       2.457   6.484   0.002  0.00  0.00     0.039 A 
ATOM     10  C16 <0> d   1       3.290   5.391   0.205  0.00  0.00     0.101 A 
ATOM     11  O3  <0> d   1       3.014   4.083   0.400  0.00  0.00    -0.305 OA
ATOM     12  O5  <0> d   1       2.181   8.810  -0.372  0.00  0.00    -0.191 OA
ENDROOT
BRANCH   9  13
ATOM     13  C17 <0> d   1       0.962   6.298  -0.025  0.00  0.00     0.279 C 
BRANCH  13  14
ATOM     14  N1  <0> d   1       0.424   6.452   1.333  0.00  0.00    -0.064 N 
ATOM     15  C21 <0> d   1      -1.044   6.513   1.315  0.00  0.00     0.265 C 
ATOM     16  C20 <0> d   1      -1.560   6.752   2.735  0.00  0.00     0.300 C 
ATOM     17  N2  <0> d   1      -1.092   5.670   3.613  0.00  0.00     0.093 N 
ATOM     18  C19 <0> d   1       0.376   5.609   3.631  0.00  0.00     0.300 C 
ATOM     19  C18 <0> d   1       0.892   5.370   2.210  0.00  0.00     0.265 C 
ATOM     20  H26 <0> d   1       0.798   7.403   1.738  0.00  0.00     0.280 HD
BRANCH  17  21
ATOM     21  C22 <0> d   1      -1.630   5.824   4.971  0.00  0.00     0.298 C 
BRANCH  21  22
ATOM     22  C23 <0> d   1      -0.960   7.020   5.652  0.00  0.00     0.194 C 
BRANCH  22  23
ATOM     23  O4  <0> d   1      -1.351   8.225   4.991  0.00  0.00    -0.399 OA
ATOM     24  H25 <0> d   1      -0.968   9.194   5.342  0.00  0.00     0.209 HD
ENDBRANCH  22  23
ENDBRANCH  21  22
ENDBRANCH  17  21
ENDBRANCH  13  14
ENDBRANCH   9  13
BRANCH   1  25
ATOM     25  C6  <0> d   1       2.976   1.202   0.723  0.00  0.00    -0.031 A 
ATOM     26  C5  <0> d   1       3.051  -0.193   0.797  0.00  0.00     0.011 A 
ATOM     27  C4  <0> d   1       1.898  -0.948   0.753  0.00  0.00     0.004 A 
ATOM     28  C3  <0> d   1       0.666  -0.330   0.636  0.00  0.00     0.037 A 
ATOM     29  C2  <0> d   1       0.580   1.054   0.562  0.00  0.00     0.069 A 
ATOM     30  C7  <0> d   1       1.729   1.824   0.605  0.00  0.00     0.048 A 
BRANCH  29  31
ATOM     31  O1  <0> d   1      -0.635   1.654   0.447  0.00  0.00    -0.356 OA
ATOM     32  C1  <0> d   1      -1.779   0.799   0.408  0.00  0.00     0.210 C 
ENDBRANCH  29  31
ENDBRANCH   1  25
TORSDOF 7
