REMARK  4 active torsions:
REMARK  status: ('A' for Active; 'I' for Inactive)
REMARK    1  A    between atoms: N2_5  and  C6_8 
REMARK    2  A    between atoms: C6_8  and  C7_9 
REMARK    3  A    between atoms: C8_10  and  O3_26 
REMARK    4  A    between atoms: C14_17  and  C15_18 
ROOT
ATOM      1  C7  <0> d   1      -0.050  -4.493   2.366  0.00  0.00     0.038 A 
ATOM      2  C8  <0> d   1       1.308  -4.685   2.565  0.00  0.00     0.076 A 
ATOM      3  C9  <0> d   1       1.785  -5.156   3.785  0.00  0.00     0.038 A 
ATOM      4  C10 <0> d   1       0.915  -5.432   4.802  0.00  0.00     0.021 A 
ATOM      5  C11 <0> d   1      -0.454  -5.243   4.616  0.00  0.00     0.051 A 
ATOM      6  C12 <0> d   1      -0.948  -4.764   3.392  0.00  0.00     0.101 A 
ATOM      7  O1  <0> d   1      -2.293  -4.656   3.452  0.00  0.00    -0.305 OA
ATOM      8  C13 <0> d   1      -2.774  -5.030   4.661  0.00  0.00     0.127 A 
ATOM      9  C14 <0> d   1      -4.076  -5.037   5.038  0.00  0.00     0.053 C 
ATOM     10  C21 <0> d   1      -1.627  -5.441   5.487  0.00  0.00     0.218 A 
ATOM     11  O2  <0> d   1      -1.642  -5.842   6.638  0.00  0.00    -0.284 OA
ENDROOT
BRANCH   1  12
ATOM     12  C6  <0> d   1      -0.553  -3.983   1.040  0.00  0.00     0.317 C 
BRANCH  12  13
ATOM     13  N2  <0> d   1      -0.592  -2.515   1.062  0.00  0.00     0.096 N 
ATOM     14  C3  <0> d   1      -1.295  -1.989  -0.116  0.00  0.00     0.303 C 
ATOM     15  C2  <0> d   1      -1.383  -0.465  -0.016  0.00  0.00     0.302 C 
ATOM     16  N1  <0> d   1      -0.029   0.097   0.080  0.00  0.00     0.087 N 
ATOM     17  C1  <0> d   1      -0.067   1.565   0.102  0.00  0.00     0.310 C 
ATOM     18  C5  <0> d   1       0.674  -0.429   1.258  0.00  0.00     0.302 C 
ATOM     19  C4  <0> d   1       0.763  -1.954   1.158  0.00  0.00     0.303 C 
ENDBRANCH  12  13
ENDBRANCH   1  12
BRANCH   2  20
ATOM     20  O3  <0> d   1       2.180  -4.414   1.561  0.00  0.00    -0.360 OA
ATOM     21  H22 <0> d   1       2.508  -3.504   1.560  0.00  0.00     0.217 HD
ENDBRANCH   2  20
BRANCH   9  22
ATOM     22  C15 <0> d   1      -5.106  -4.501   4.135  0.00  0.00    -0.034 A 
ATOM     23  C20 <0> d   1      -4.765  -4.101   2.838  0.00  0.00     0.011 A 
ATOM     24  C19 <0> d   1      -5.737  -3.606   1.996  0.00  0.00     0.001 A 
ATOM     25  C18 <0> d   1      -7.045  -3.492   2.434  0.00  0.00     0.000 A 
ATOM     26  C17 <0> d   1      -7.389  -3.880   3.717  0.00  0.00     0.001 A 
ATOM     27  C16 <0> d   1      -6.430  -4.383   4.570  0.00  0.00     0.011 A 
ENDBRANCH   9  22
TORSDOF 4
