REMARK  5 active torsions:
REMARK  status: ('A' for Active; 'I' for Inactive)
REMARK    1  A    between atoms: C8_8  and  C11_13 
REMARK    2  A    between atoms: C11_13  and  N1_14 
REMARK    3  A    between atoms: N2_17  and  C16_20 
REMARK    4  A    between atoms: C16_20  and  C17_21 
REMARK    5  A    between atoms: C17_21  and  C18_22 
ROOT
ATOM      1  N1  <0> d   1       1.428  -1.797   4.133  0.00  0.00     0.096 N 
ATOM      2  C12 <0> d   1       1.978  -0.791   3.215  0.00  0.00     0.303 C 
ATOM      3  C13 <0> d   1       3.437  -0.509   3.585  0.00  0.00     0.302 C 
ATOM      4  N2  <0> d   1       3.504  -0.042   4.977  0.00  0.00     0.092 N 
ATOM      5  C14 <0> d   1       2.953  -1.048   5.895  0.00  0.00     0.302 C 
ATOM      6  C15 <0> d   1       1.495  -1.329   5.524  0.00  0.00     0.303 C 
ENDROOT
BRANCH   1   7
ATOM      7  C11 <0> d   1       0.051  -2.150   3.762  0.00  0.00     0.312 C 
BRANCH   7   8
ATOM      8  C8  <0> d   1       0.053  -2.850   2.428  0.00  0.00    -0.011 A 
ATOM      9  C6  <0> d   1       0.037  -2.087   1.176  0.00  0.00     0.007 A 
ATOM     10  C5  <0> d   1       0.041  -2.781  -0.046  0.00  0.00     0.096 A 
ATOM     11  C7  <0> d   1       0.023  -0.689   1.185  0.00  0.00     0.021 A 
ATOM     12  C4  <0> d   1       0.025  -2.065  -1.236  0.00  0.00    -0.027 A 
ATOM     13  O2  <0> d   1       0.059  -4.131  -0.052  0.00  0.00    -0.274 OA
ATOM     14  C3  <0> d   1       0.006  -0.686  -1.206  0.00  0.00     0.016 A 
ATOM     15  C23 <0> d   1       0.028  -2.792  -2.556  0.00  0.00     0.051 C 
ATOM     16  C2  <0> d   1       0.002  -0.004   0.002  0.00  0.00    -0.060 A 
ATOM     17  C1  <0> d   1      -0.018   1.503   0.010  0.00  0.00     0.048 C 
ATOM     18  C10 <0> d   1       0.074  -4.837   1.089  0.00  0.00     0.288 A 
ATOM     19  C9  <0> d   1       0.072  -4.205   2.351  0.00  0.00     0.092 A 
ATOM     20  O1  <0> d   1       0.091  -6.053   1.034  0.00  0.00    -0.260 OA
ENDBRANCH   7   8
ENDBRANCH   1   7
BRANCH   4  21
ATOM     21  C16 <0> d   1       4.881   0.311   5.347  0.00  0.00     0.277 C 
BRANCH  21  22
ATOM     22  C17 <0> d   1       4.878   1.022   6.702  0.00  0.00     0.069 C 
BRANCH  22  23
ATOM     23  C18 <0> d   1       6.291   1.385   7.082  0.00  0.00    -0.054 A 
ATOM     24  C22 <0> d   1       6.835   2.604   6.710  0.00  0.00     0.026 A 
ATOM     25  C21 <0> d   1       8.132   2.904   7.082  0.00  0.00     0.116 A 
ATOM     26  N3  <0> d   1       8.852   2.042   7.772  0.00  0.00    -0.273 NA
ATOM     27  C20 <0> d   1       8.370   0.870   8.138  0.00  0.00     0.116 A 
ATOM     28  C19 <0> d   1       7.079   0.504   7.807  0.00  0.00     0.026 A 
ENDBRANCH  22  23
ENDBRANCH  21  22
ENDBRANCH   4  21
TORSDOF 5
