REMARK  7 active torsions:
REMARK  status: ('A' for Active; 'I' for Inactive)
REMARK    1  A    between atoms: N1_4  and  C7_9 
REMARK    2  A    between atoms: C7_9  and  C8_10 
REMARK    3  A    between atoms: C8_10  and  O2_11 
REMARK    4  A    between atoms: O2_11  and  C9_12 
REMARK    5  A    between atoms: C12_15  and  C15_19 
REMARK    6  A    between atoms: C13_16  and  O3_18 
REMARK    7  A    between atoms: C16_20  and  C18_25 
ROOT
ATOM      1  C9  <0> d   1       6.290   0.435  -1.484  0.00  0.00     0.071 A 
ATOM      2  C10 <0> d   1       6.553   1.504  -2.332  0.00  0.00     0.038 A 
ATOM      3  C11 <0> d   1       7.782   2.127  -2.302  0.00  0.00     0.019 A 
ATOM      4  C12 <0> d   1       8.767   1.685  -1.417  0.00  0.00     0.026 A 
ATOM      5  C13 <0> d   1       8.500   0.607  -0.562  0.00  0.00     0.081 A 
ATOM      6  C14 <0> d   1       7.261  -0.008  -0.597  0.00  0.00     0.074 A 
ENDROOT
BRANCH   4   7
ATOM      7  C15 <0> d   1      10.085   2.350  -1.382  0.00  0.00     0.075 A 
ATOM      8  N3  <0> d   1      11.007   2.374  -2.385  0.00  0.00    -0.277 N 
ATOM      9  N2  <0> d   1      12.111   3.112  -1.942  0.00  0.00    -0.186 NA
ATOM     10  H3  <0> d   1      10.914   1.955  -3.255  0.00  0.00     0.189 HD
ATOM     11  C17 <0> d   1      11.890   3.520  -0.720  0.00  0.00     0.153 A 
ATOM     12  C16 <0> d   1      10.622   3.064  -0.319  0.00  0.00     0.022 A 
BRANCH  12  13
ATOM     13  C18 <0> d   1       9.978   3.301   0.995  0.00  0.00    -0.022 A 
ATOM     14  C23 <0> d   1      10.630   2.934   2.171  0.00  0.00     0.012 A 
ATOM     15  C22 <0> d   1      10.029   3.163   3.392  0.00  0.00     0.001 A 
ATOM     16  C21 <0> d   1       8.775   3.746   3.449  0.00  0.00     0.000 A 
ATOM     17  C20 <0> d   1       8.120   4.107   2.285  0.00  0.00     0.001 A 
ATOM     18  C19 <0> d   1       8.715   3.889   1.060  0.00  0.00     0.012 A 
ENDBRANCH  12  13
ENDBRANCH   4   7
BRANCH   5  19
ATOM     19  O3  <0> d   1       9.454   0.170   0.301  0.00  0.00    -0.360 OA
ATOM     20  H21 <0> d   1       9.430   0.604   1.165  0.00  0.00     0.217 HD
ENDBRANCH   5  19
BRANCH   1  21
ATOM     21  O2  <0> d   1       5.077  -0.175  -1.519  0.00  0.00    -0.349 OA
BRANCH  21  22
ATOM     22  C8  <0> d   1       4.124   0.332  -2.456  0.00  0.00     0.206 C 
BRANCH  22  23
ATOM     23  C7  <0> d   1       2.828  -0.475  -2.350  0.00  0.00     0.299 C 
BRANCH  23  24
ATOM     24  N1  <0> d   1       2.243  -0.289  -1.016  0.00  0.00     0.095 N 
ATOM     25  C3  <0> d   1       1.593   1.025  -0.903  0.00  0.00     0.303 C 
ATOM     26  C2  <0> d   1       1.051   1.200   0.518  0.00  0.00     0.146 C 
ATOM     27  C1  <0> d   1       2.212   1.188   1.513  0.00  0.00     0.041 C 
ATOM     28  O1  <0> d   1       0.154   0.126   0.817  0.00  0.00    -0.378 OA
ATOM     29  C5  <0> d   1       0.755  -1.169   0.717  0.00  0.00     0.146 C 
ATOM     30  C4  <0> d   1       1.294  -1.368  -0.702  0.00  0.00     0.303 C 
ATOM     31  C6  <0> d   1      -0.292  -2.243   1.021  0.00  0.00     0.041 C 
ENDBRANCH  23  24
ENDBRANCH  22  23
ENDBRANCH  21  22
ENDBRANCH   1  21
TORSDOF 7
