REMARK  4 active torsions:
REMARK  status: ('A' for Active; 'I' for Inactive)
REMARK    1  A    between atoms: C2_2  and  N1_3 
REMARK    2  A    between atoms: N2_6  and  C7_9 
REMARK    3  A    between atoms: C7_9  and  C8_10 
REMARK    4  A    between atoms: C14_18  and  C17_21 
ROOT
ATOM      1  C8  <0> d   1      -1.050   2.131  -0.024  0.00  0.00    -0.011 A 
ATOM      2  C9  <0> d   1      -2.033   1.198  -0.087  0.00  0.00     0.092 A 
ATOM      3  C10 <0> d   1      -1.698  -0.172  -0.146  0.00  0.00     0.288 A 
ATOM      4  O1  <0> d   1      -2.590  -0.999  -0.198  0.00  0.00    -0.260 OA
ATOM      5  O2  <0> d   1      -0.421  -0.586  -0.148  0.00  0.00    -0.275 OA
ATOM      6  C11 <0> d   1       0.604   0.291  -0.092  0.00  0.00     0.090 A 
ATOM      7  C12 <0> d   1       0.342   1.671  -0.031  0.00  0.00     0.007 A 
ATOM      8  C13 <0> d   1       1.403   2.581   0.027  0.00  0.00     0.022 A 
ATOM      9  C14 <0> d   1       2.690   2.122   0.025  0.00  0.00    -0.054 A 
ATOM     10  C15 <0> d   1       2.952   0.761  -0.036  0.00  0.00     0.010 A 
ATOM     11  C16 <0> d   1       1.920  -0.153  -0.094  0.00  0.00     0.039 A 
ENDROOT
BRANCH   1  12
ATOM     12  C7  <0> d   1      -1.379   3.600   0.041  0.00  0.00     0.312 C 
BRANCH  12  13
ATOM     13  N2  <0> d   1      -1.156   4.093   1.407  0.00  0.00     0.096 N 
ATOM     14  C4  <0> d   1      -1.100   5.561   1.434  0.00  0.00     0.303 C 
ATOM     15  C3  <0> d   1      -0.787   6.030   2.857  0.00  0.00     0.302 C 
ATOM     16  N1  <0> d   1      -1.820   5.528   3.774  0.00  0.00     0.091 N 
ATOM     17  C6  <0> d   1      -1.876   4.060   3.746  0.00  0.00     0.302 C 
ATOM     18  C5  <0> d   1      -2.189   3.591   2.323  0.00  0.00     0.303 C 
BRANCH  16  19
ATOM     19  C2  <0> d   1      -1.596   6.021   5.140  0.00  0.00     0.268 C 
ATOM     20  C1  <0> d   1      -2.813   5.690   6.007  0.00  0.00     0.037 C 
ENDBRANCH  16  19
ENDBRANCH  12  13
ENDBRANCH   1  12
BRANCH   9  21
ATOM     21  C17 <0> d   1       3.833   3.101   0.088  0.00  0.00     0.010 C 
ATOM     22  C18 <0> d   1       4.671   2.826   1.339  0.00  0.00     0.015 C 
ATOM     23  C19 <0> d   1       4.709   2.945  -1.157  0.00  0.00     0.015 C 
ENDBRANCH   9  21
TORSDOF 4
