REMARK  4 active torsions:
REMARK  status: ('A' for Active; 'I' for Inactive)
REMARK    1  A    between atoms: C2_2  and  C3_3 
REMARK    2  A    between atoms: C6_6  and  C12_15 
REMARK    3  A    between atoms: C11_13  and  O3_14 
REMARK    4  A    between atoms: C12_15  and  N1_16 
ROOT
ATOM      1  C3  <0> d   1      -1.412  -0.526   0.013  0.00  0.00    -0.024 A 
ATOM      2  C4  <0> d   1      -1.986  -0.952  -1.150  0.00  0.00     0.024 A 
ATOM      3  C5  <0> d   1      -3.299  -1.437  -1.140  0.00  0.00     0.007 A 
ATOM      4  C6  <0> d   1      -3.940  -1.901  -2.372  0.00  0.00    -0.011 A 
ATOM      5  C7  <0> d   1      -5.216  -2.361  -2.297  0.00  0.00     0.092 A 
ATOM      6  C8  <0> d   1      -5.883  -2.379  -1.055  0.00  0.00     0.288 A 
ATOM      7  O1  <0> d   1      -7.027  -2.793  -1.002  0.00  0.00    -0.260 OA
ATOM      8  O2  <0> d   1      -5.290  -1.952   0.071  0.00  0.00    -0.275 OA
ATOM      9  C9  <0> d   1      -4.024  -1.483   0.066  0.00  0.00     0.093 A 
ATOM     10  C10 <0> d   1      -3.425  -1.046   1.237  0.00  0.00     0.075 A 
ATOM     11  C11 <0> d   1      -2.122  -0.575   1.210  0.00  0.00     0.074 A 
ENDROOT
BRANCH   4  12
ATOM     12  C12 <0> d   1      -3.204  -1.871  -3.687  0.00  0.00     0.312 C 
BRANCH  12  13
ATOM     13  N1  <0> d   1      -3.342  -0.540  -4.293  0.00  0.00     0.096 N 
ATOM     14  C16 <0> d   1      -2.449  -0.395  -5.452  0.00  0.00     0.303 C 
ATOM     15  C15 <0> d   1      -2.563   1.028  -6.005  0.00  0.00     0.302 C 
ATOM     16  N2  <0> d   1      -3.959   1.293  -6.383  0.00  0.00     0.087 N 
ATOM     17  C14 <0> d   1      -4.851   1.148  -5.224  0.00  0.00     0.302 C 
ATOM     18  C17 <0> d   1      -4.096   2.624  -6.989  0.00  0.00     0.310 C 
ATOM     19  C13 <0> d   1      -4.737  -0.274  -4.671  0.00  0.00     0.303 C 
ENDBRANCH  12  13
ENDBRANCH   4  12
BRANCH   1  20
ATOM     20  C2  <0> d   1       0.002  -0.004   0.002  0.00  0.00     0.037 C 
ATOM     21  C1  <0> d   1      -0.019   1.526   0.010  0.00  0.00     0.010 C 
ENDBRANCH   1  20
BRANCH  11  22
ATOM     22  O3  <0> d   1      -1.536  -0.152   2.359  0.00  0.00    -0.360 OA
ATOM     23  H9  <0> d   1      -1.668   0.788   2.546  0.00  0.00     0.217 HD
ENDBRANCH  11  22
TORSDOF 4
