REMARK  6 active torsions:
REMARK  status: ('A' for Active; 'I' for Inactive)
REMARK    1  A    between atoms: N1_2  and  C2_3 
REMARK    2  A    between atoms: N1_2  and  C9_10 
REMARK    3  A    between atoms: C2_3  and  C3_4 
REMARK    4  A    between atoms: C9_10  and  C10_11 
REMARK    5  A    between atoms: C17_19  and  C19_22 
REMARK    6  A    between atoms: C22_25  and  O3_28 
ROOT
ATOM      1  C10 <0> d   1       1.186   3.170   0.008  0.00  0.00     0.039 A 
ATOM      2  C11 <0> d   1       1.186   1.785   0.000  0.00  0.00     0.118 A 
ATOM      3  C12 <0> d   1      -0.013   1.076   0.008  0.00  0.00     0.041 A 
ATOM      4  C13 <0> d   1      -1.206   1.739   0.017  0.00  0.00     0.021 A 
ATOM      5  C14 <0> d   1      -1.223   3.135   0.031  0.00  0.00     0.050 A 
ATOM      6  C15 <0> d   1      -0.019   3.860   0.023  0.00  0.00     0.100 A 
ATOM      7  O1  <0> d   1      -0.037   5.208   0.031  0.00  0.00    -0.320 OA
ATOM      8  C16 <0> d   1      -1.163   5.926   0.046  0.00  0.00     0.159 A 
ATOM      9  C17 <0> d   1      -2.394   5.354   0.055  0.00  0.00     0.048 A 
ATOM     10  C18 <0> d   1      -2.492   3.884   0.048  0.00  0.00     0.197 A 
ATOM     11  O2  <0> d   1      -3.570   3.315   0.055  0.00  0.00    -0.286 OA
ATOM     12  O4  <0> d   1       2.365   1.113  -0.014  0.00  0.00    -0.191 OA
ENDROOT
BRANCH   1  13
ATOM     13  C9  <0> d   1       2.490   3.926  -0.001  0.00  0.00     0.279 C 
BRANCH  13  14
ATOM     14  N1  <0> d   1       2.900   4.179  -1.389  0.00  0.00    -0.067 N 
ATOM     15  C1  <0> d   1       1.962   5.092  -2.057  0.00  0.00     0.270 C 
ATOM     16  H23 <0> d   1       2.879   3.220  -1.927  0.00  0.00     0.280 HD
BRANCH  14  17
ATOM     17  C2  <0> d   1       4.272   4.700  -1.446  0.00  0.00     0.273 C 
BRANCH  17  18
ATOM     18  C3  <0> d   1       4.744   4.715  -2.877  0.00  0.00    -0.033 A 
ATOM     19  C8  <0> d   1       4.534   5.833  -3.662  0.00  0.00     0.009 A 
ATOM     20  C7  <0> d   1       4.968   5.848  -4.975  0.00  0.00     0.001 A 
ATOM     21  C6  <0> d   1       5.611   4.744  -5.502  0.00  0.00     0.000 A 
ATOM     22  C5  <0> d   1       5.822   3.626  -4.716  0.00  0.00     0.001 A 
ATOM     23  C4  <0> d   1       5.393   3.614  -3.402  0.00  0.00     0.009 A 
ENDBRANCH  17  18
ENDBRANCH  14  17
ENDBRANCH  13  14
ENDBRANCH   1  13
BRANCH   9  24
ATOM     24  C19 <0> d   1      -3.618   6.192   0.072  0.00  0.00    -0.020 A 
ATOM     25  C24 <0> d   1      -3.746   7.222   1.003  0.00  0.00     0.015 A 
ATOM     26  C23 <0> d   1      -4.884   8.001   1.015  0.00  0.00     0.037 A 
ATOM     27  C22 <0> d   1      -5.902   7.760   0.103  0.00  0.00     0.068 A 
ATOM     28  C21 <0> d   1      -5.777   6.735  -0.826  0.00  0.00     0.037 A 
ATOM     29  C20 <0> d   1      -4.639   5.957  -0.847  0.00  0.00     0.015 A 
BRANCH  27  30
ATOM     30  O3  <0> d   1      -7.023   8.528   0.118  0.00  0.00    -0.356 OA
ATOM     31  C25 <0> d   1      -8.030   8.225  -0.849  0.00  0.00     0.210 C 
ENDBRANCH  27  30
ENDBRANCH   9  24
TORSDOF 6
