REMARK  9 active torsions:
REMARK  status: ('A' for Active; 'I' for Inactive)
REMARK    1  A    between atoms: C3_3  and  C24_32 
REMARK    2  A    between atoms: C4_4  and  C5_8 
REMARK    3  A    between atoms: C8_11  and  O2_15 
REMARK    4  A    between atoms: C10_13  and  O1_14 
REMARK    5  A    between atoms: O2_15  and  C11_16 
REMARK    6  A    between atoms: C11_16  and  C12_17 
REMARK    7  A    between atoms: C12_17  and  N3_18 
REMARK    8  A    between atoms: N4_21  and  C17_24 
REMARK    9  A    between atoms: C20_27  and  O3_30 
ROOT
ATOM      1  C5  <0> d   1      -0.007  -3.351  -1.569  0.00  0.00     0.026 A 
ATOM      2  C6  <0> d   1      -1.090  -4.232  -1.570  0.00  0.00     0.019 A 
ATOM      3  C7  <0> d   1      -1.063  -5.354  -2.371  0.00  0.00     0.038 A 
ATOM      4  C8  <0> d   1       0.039  -5.611  -3.177  0.00  0.00     0.071 A 
ATOM      5  C9  <0> d   1       1.119  -4.741  -3.182  0.00  0.00     0.074 A 
ATOM      6  C10 <0> d   1       1.101  -3.608  -2.387  0.00  0.00     0.081 A 
ENDROOT
BRANCH   4   7
ATOM      7  O2  <0> d   1       0.058  -6.719  -3.963  0.00  0.00    -0.349 OA
BRANCH   7   8
ATOM      8  C11 <0> d   1      -1.087  -7.572  -3.910  0.00  0.00     0.203 C 
BRANCH   8   9
ATOM      9  C12 <0> d   1      -0.883  -8.758  -4.855  0.00  0.00     0.261 C 
BRANCH   9  10
ATOM     10  N3  <0> d   1       0.237  -9.579  -4.376  0.00  0.00    -0.066 N 
ATOM     11  C16 <0> d   1       0.508 -10.648  -5.347  0.00  0.00     0.254 C 
ATOM     12  C15 <0> d   1       1.747 -11.434  -4.906  0.00  0.00     0.150 C 
ATOM     13  N4  <0> d   1       1.535 -11.904  -3.529  0.00  0.00    -0.378 N 
ATOM     14  C14 <0> d   1       1.101 -10.925  -2.521  0.00  0.00     0.150 C 
ATOM     15  C13 <0> d   1      -0.108 -10.163  -3.074  0.00  0.00     0.254 C 
ATOM     16  H33 <0> d   1       1.058  -9.001  -4.277  0.00  0.00     0.280 HD
BRANCH  13  17
ATOM     17  C17 <0> d   1       1.741 -13.246  -3.187  0.00  0.00     0.030 A 
ATOM     18  C22 <0> d   1       1.651 -13.646  -1.860  0.00  0.00     0.032 A 
ATOM     19  C21 <0> d   1       1.849 -14.971  -1.524  0.00  0.00     0.039 A 
ATOM     20  C20 <0> d   1       2.150 -15.899  -2.510  0.00  0.00     0.068 A 
ATOM     21  C19 <0> d   1       2.246 -15.499  -3.835  0.00  0.00     0.039 A 
ATOM     22  C18 <0> d   1       2.042 -14.176  -4.173  0.00  0.00     0.032 A 
BRANCH  20  23
ATOM     23  O3  <0> d   1       2.350 -17.203  -2.178  0.00  0.00    -0.356 OA
ATOM     24  C23 <0> d   1       2.236 -17.545  -0.795  0.00  0.00     0.210 C 
ENDBRANCH  20  23
ENDBRANCH  13  17
ENDBRANCH   9  10
ENDBRANCH   8   9
ENDBRANCH   7   8
ENDBRANCH   4   7
BRANCH   6  25
ATOM     25  O1  <0> d   1       2.155  -2.752  -2.395  0.00  0.00    -0.360 OA
ATOM     26  H8  <0> d   1       2.837  -2.963  -1.743  0.00  0.00     0.217 HD
ENDBRANCH   6  25
BRANCH   1  27
ATOM     27  C4  <0> d   1      -0.032  -2.148  -0.712  0.00  0.00     0.076 A 
ATOM     28  C3  <0> d   1      -0.051  -0.828  -1.143  0.00  0.00     0.029 A 
ATOM     29  C2  <0> d   1      -0.072  -0.015   0.005  0.00  0.00     0.064 A 
ATOM     30  C1  <0> d   1      -0.097   1.492   0.016  0.00  0.00     0.073 C 
ATOM     31  N2  <0> d   1      -0.061  -0.785   1.060  0.00  0.00    -0.178 NA
ATOM     32  N1  <0> d   1      -0.042  -2.123   0.650  0.00  0.00    -0.276 N 
ATOM     33  H1  <0> d   1      -0.033  -2.897   1.234  0.00  0.00     0.189 HD
BRANCH  28  34
ATOM     34  C24 <0> d   1      -0.050  -0.361  -2.550  0.00  0.00    -0.022 A 
ATOM     35  C29 <0> d   1       1.035   0.360  -3.047  0.00  0.00     0.012 A 
ATOM     36  C28 <0> d   1       1.033   0.786  -4.359  0.00  0.00     0.001 A 
ATOM     37  C27 <0> d   1      -0.047   0.509  -5.178  0.00  0.00     0.000 A 
ATOM     38  C26 <0> d   1      -1.128  -0.201  -4.689  0.00  0.00     0.001 A 
ATOM     39  C25 <0> d   1      -1.135  -0.638  -3.380  0.00  0.00     0.012 A 
ENDBRANCH  28  34
ENDBRANCH   1  27
TORSDOF 9
