REMARK  7 active torsions:
REMARK  status: ('A' for Active; 'I' for Inactive)
REMARK    1  A    between atoms: O1_2  and  C2_3 
REMARK    2  A    between atoms: C5_6  and  C8_9 
REMARK    3  A    between atoms: C15_18  and  O5_35 
REMARK    4  A    between atoms: C16_19  and  C17_20 
REMARK    5  A    between atoms: C17_20  and  N1_21 
REMARK    6  A    between atoms: N2_24  and  C22_27 
REMARK    7  A    between atoms: C25_30  and  O4_33 
ROOT
ATOM      1  C8  <0> d   1       2.461  -2.556  -4.351  0.00  0.00     0.048 C 
ATOM      2  C9  <0> d   1       3.796  -2.411  -4.557  0.00  0.00     0.159 C 
ATOM      3  O2  <0> d   1       4.436  -2.986  -5.578  0.00  0.00    -0.320 OA
ATOM      4  C10 <0> d   1       3.774  -3.489  -6.638  0.00  0.00     0.100 A 
ATOM      5  C11 <0> d   1       2.388  -3.716  -6.566  0.00  0.00     0.050 A 
ATOM      6  C12 <0> d   1       1.694  -3.376  -5.309  0.00  0.00     0.197 C 
ATOM      7  O3  <0> d   1       0.555  -3.745  -5.076  0.00  0.00    -0.286 OA
ATOM      8  C13 <0> d   1       1.700  -4.247  -7.657  0.00  0.00     0.021 A 
ATOM      9  C14 <0> d   1       2.378  -4.543  -8.806  0.00  0.00     0.038 A 
ATOM     10  C15 <0> d   1       3.750  -4.316  -8.890  0.00  0.00     0.076 A 
ATOM     11  C16 <0> d   1       4.447  -3.792  -7.814  0.00  0.00     0.035 A 
ENDROOT
BRANCH  11  12
ATOM     12  C17 <0> d   1       5.931  -3.551  -7.919  0.00  0.00     0.279 C 
BRANCH  12  13
ATOM     13  N1  <0> d   1       6.653  -4.755  -7.486  0.00  0.00    -0.064 N 
ATOM     14  C21 <0> d   1       8.093  -4.563  -7.701  0.00  0.00     0.255 C 
ATOM     15  C20 <0> d   1       8.837  -5.857  -7.357  0.00  0.00     0.150 C 
ATOM     16  N2  <0> d   1       8.476  -6.253  -5.987  0.00  0.00    -0.378 N 
ATOM     17  C19 <0> d   1       7.048  -6.312  -5.636  0.00  0.00     0.150 C 
ATOM     18  C18 <0> d   1       6.389  -4.996  -6.062  0.00  0.00     0.255 C 
ATOM     19  H29 <0> d   1       6.337  -5.548  -8.023  0.00  0.00     0.280 HD
BRANCH  16  20
ATOM     20  C22 <0> d   1       9.462  -6.564  -5.044  0.00  0.00     0.030 A 
ATOM     21  C27 <0> d   1      10.796  -6.617  -5.426  0.00  0.00     0.032 A 
ATOM     22  C26 <0> d   1      11.769  -6.919  -4.494  0.00  0.00     0.039 A 
ATOM     23  C25 <0> d   1      11.413  -7.180  -3.179  0.00  0.00     0.068 A 
ATOM     24  C24 <0> d   1      10.080  -7.133  -2.798  0.00  0.00     0.039 A 
ATOM     25  C23 <0> d   1       9.106  -6.825  -3.728  0.00  0.00     0.032 A 
BRANCH  23  26
ATOM     26  O4  <0> d   1      12.371  -7.483  -2.263  0.00  0.00    -0.356 OA
ATOM     27  C28 <0> d   1      13.723  -7.514  -2.724  0.00  0.00     0.210 C 
ENDBRANCH  23  26
ENDBRANCH  16  20
ENDBRANCH  12  13
ENDBRANCH  11  12
BRANCH  10  28
ATOM     28  O5  <0> d   1       4.411  -4.612 -10.038  0.00  0.00    -0.360 OA
ATOM     29  H28 <0> d   1       4.449  -3.880 -10.669  0.00  0.00     0.217 HD
ENDBRANCH  10  28
BRANCH   1  30
ATOM     30  C5  <0> d   1       1.794  -1.913  -3.193  0.00  0.00    -0.020 A 
ATOM     31  C4  <0> d   1       1.732  -0.523  -3.106  0.00  0.00     0.015 A 
ATOM     32  C3  <0> d   1       1.111   0.072  -2.028  0.00  0.00     0.037 A 
ATOM     33  C2  <0> d   1       0.548  -0.711  -1.030  0.00  0.00     0.068 A 
ATOM     34  C7  <0> d   1       0.613  -2.095  -1.111  0.00  0.00     0.037 A 
ATOM     35  C6  <0> d   1       1.228  -2.697  -2.189  0.00  0.00     0.015 A 
BRANCH  33  36
ATOM     36  O1  <0> d   1      -0.063  -0.122   0.031  0.00  0.00    -0.356 OA
ATOM     37  C1  <0> d   1      -0.094   1.307   0.051  0.00  0.00     0.210 C 
ENDBRANCH  33  36
ENDBRANCH   1  30
TORSDOF 7
