REMARK  8 active torsions:
REMARK  status: ('A' for Active; 'I' for Inactive)
REMARK    1  A    between atoms: C2_2  and  C4_4 
REMARK    2  A    between atoms: C4_4  and  O1_5 
REMARK    3  A    between atoms: O1_5  and  C5_6 
REMARK    4  A    between atoms: C7_8  and  O2_9 
REMARK    5  A    between atoms: C8_10  and  C9_11 
REMARK    6  A    between atoms: C10_12  and  O3_17 
REMARK    7  A    between atoms: O3_17  and  C13_18 
REMARK    8  A    between atoms: C16_21  and  O4_24 
ROOT
ATOM      1  C9  <0> d   1       0.027  -5.543  -5.533  0.00  0.00     0.106 A 
ATOM      2  C10 <0> d   1      -0.072  -5.011  -6.828  0.00  0.00     0.123 A 
ATOM      3  C11 <0> d   1      -0.034  -5.888  -7.902  0.00  0.00     0.157 A 
ATOM      4  N1  <0> d   1       0.094  -7.186  -7.671  0.00  0.00    -0.251 NA
ATOM      5  C12 <0> d   1       0.185  -7.653  -6.441  0.00  0.00     0.233 A 
ATOM      6  N2  <0> d   1       0.159  -6.861  -5.390  0.00  0.00    -0.238 NA
ENDROOT
BRANCH   1   7
ATOM      7  C8  <0> d   1      -0.008  -4.656  -4.349  0.00  0.00     0.029 A 
ATOM      8  C7  <0> d   1      -0.844  -4.960  -3.268  0.00  0.00     0.081 A 
ATOM      9  C6  <0> d   1      -0.873  -4.126  -2.164  0.00  0.00     0.074 A 
ATOM     10  C5  <0> d   1      -0.074  -2.992  -2.130  0.00  0.00     0.071 A 
ATOM     11  C21 <0> d   1       0.752  -2.687  -3.205  0.00  0.00     0.038 A 
ATOM     12  C20 <0> d   1       0.791  -3.514  -4.306  0.00  0.00     0.019 A 
BRANCH   8  13
ATOM     13  O2  <0> d   1      -1.626  -6.070  -3.303  0.00  0.00    -0.360 OA
ATOM     14  H20 <0> d   1      -2.502  -5.923  -3.684  0.00  0.00     0.217 HD
ENDBRANCH   8  13
BRANCH  10  15
ATOM     15  O1  <0> d   1      -0.104  -2.175  -1.046  0.00  0.00    -0.347 OA
BRANCH  15  16
ATOM     16  C4  <0> d   1       0.739  -1.022  -1.079  0.00  0.00     0.208 C 
BRANCH  16  17
ATOM     17  C2  <0> d   1       0.573  -0.241   0.200  0.00  0.00    -0.069 C 
ATOM     18  C1  <0> d   1       1.357   1.028   0.415  0.00  0.00     0.044 C 
ATOM     19  C3  <0> d   1      -0.253  -0.666   1.124  0.00  0.00     0.016 C 
ENDBRANCH  16  17
ENDBRANCH  15  16
ENDBRANCH  10  15
ENDBRANCH   1   7
BRANCH   2  20
ATOM     20  O3  <0> d   1      -0.203  -3.672  -7.024  0.00  0.00    -0.307 OA
BRANCH  20  21
ATOM     21  C13 <0> d   1      -0.414  -3.231  -8.293  0.00  0.00     0.076 A 
ATOM     22  C18 <0> d   1       0.621  -2.640  -9.003  0.00  0.00     0.040 A 
ATOM     23  C17 <0> d   1       0.408  -2.197 -10.294  0.00  0.00     0.039 A 
ATOM     24  C16 <0> d   1      -0.844  -2.332 -10.876  0.00  0.00     0.068 A 
ATOM     25  C15 <0> d   1      -1.880  -2.917 -10.164  0.00  0.00     0.039 A 
ATOM     26  C14 <0> d   1      -1.666  -3.366  -8.875  0.00  0.00     0.040 A 
BRANCH  24  27
ATOM     27  O4  <0> d   1      -1.055  -1.891 -12.144  0.00  0.00    -0.356 OA
ATOM     28  C19 <0> d   1       0.057  -1.298 -12.819  0.00  0.00     0.210 C 
ENDBRANCH  24  27
ENDBRANCH  20  21
ENDBRANCH   2  20
TORSDOF 8
