REMARK  3 active torsions:
REMARK  status: ('A' for Active; 'I' for Inactive)
REMARK    1  A    between atoms: C5_5  and  C17_19 
REMARK    2  A    between atoms: C10_11  and  C11_12 
REMARK    3  A    between atoms: C17_19  and  N1_20 
ROOT
ATOM      1  C1  <0> d   1      -0.025   5.801  -0.036  0.00  0.00     0.049 C 
ATOM      2  C2  <0> d   1      -0.020   4.294  -0.049  0.00  0.00    -0.042 A 
ATOM      3  C3  <0> d   1       1.164   3.613  -0.087  0.00  0.00     0.048 A 
ATOM      4  C4  <0> d   1       1.171   2.221  -0.101  0.00  0.00     0.118 A 
ATOM      5  C5  <0> d   1      -0.018   1.510  -0.076  0.00  0.00     0.041 A 
ATOM      6  C6  <0> d   1      -1.231   2.187  -0.043  0.00  0.00     0.102 A 
ATOM      7  C7  <0> d   1      -1.225   3.591  -0.024  0.00  0.00     0.057 A 
ATOM      8  C8  <0> d   1      -2.637   4.012   0.019  0.00  0.00     0.219 A 
ATOM      9  O1  <0> d   1      -3.076   5.148   0.041  0.00  0.00    -0.284 OA
ATOM     10  C9  <0> d   1      -3.398   2.752   0.028  0.00  0.00     0.128 A 
ATOM     11  C10 <0> d   1      -4.748   2.630   0.062  0.00  0.00     0.053 C 
ATOM     12  O2  <0> d   1      -2.504   1.735  -0.006  0.00  0.00    -0.305 OA
ATOM     13  O4  <0> d   1       2.353   1.555  -0.139  0.00  0.00    -0.191 OA
ENDROOT
BRANCH   5  14
ATOM     14  C17 <0> d   1       0.004   0.004  -0.091  0.00  0.00     0.317 C 
BRANCH  14  15
ATOM     15  N1  <0> d   1       0.049  -0.500   1.288  0.00  0.00     0.097 N 
ATOM     16  C21 <0> d   1      -0.167  -1.954   1.325  0.00  0.00     0.299 C 
ATOM     17  C20 <0> d   1      -0.172  -2.426   2.782  0.00  0.00     0.198 C 
ATOM     18  O3  <0> d   1       1.056  -2.044   3.406  0.00  0.00    -0.388 OA
ATOM     19  C19 <0> d   1       1.298  -0.634   3.388  0.00  0.00     0.198 C 
ATOM     20  C18 <0> d   1       1.318  -0.144   1.938  0.00  0.00     0.299 C 
ENDBRANCH  14  15
ENDBRANCH   5  14
BRANCH  11  21
ATOM     21  C11 <0> d   1      -5.370   1.303  -0.049  0.00  0.00    -0.034 A 
ATOM     22  C16 <0> d   1      -4.574   0.152  -0.062  0.00  0.00     0.011 A 
ATOM     23  C15 <0> d   1      -5.165  -1.089  -0.166  0.00  0.00     0.001 A 
ATOM     24  C14 <0> d   1      -6.542  -1.198  -0.257  0.00  0.00     0.000 A 
ATOM     25  C13 <0> d   1      -7.337  -0.065  -0.244  0.00  0.00     0.001 A 
ATOM     26  C12 <0> d   1      -6.761   1.183  -0.136  0.00  0.00     0.011 A 
ENDBRANCH  11  21
TORSDOF 3
