REMARK  6 active torsions:
REMARK  status: ('A' for Active; 'I' for Inactive)
REMARK    1  A    between atoms: C2_2  and  O1_3 
REMARK    2  A    between atoms: O1_3  and  C3_4 
REMARK    3  A    between atoms: C8_9  and  C9_10 
REMARK    4  A    between atoms: C15_17  and  O4_29 
REMARK    5  A    between atoms: C16_18  and  C18_21 
REMARK    6  A    between atoms: C18_21  and  N1_22 
ROOT
ATOM      1  C9  <0> d   1      -3.969  -1.535   0.031  0.00  0.00     0.055 C 
ATOM      2  C10 <0> d   1      -5.211  -2.075  -0.062  0.00  0.00     0.128 A 
ATOM      3  C11 <0> d   1      -6.475  -1.333  -0.170  0.00  0.00     0.218 A 
ATOM      4  O2  <0> d   1      -6.631  -0.124  -0.194  0.00  0.00    -0.284 OA
ATOM      5  C12 <0> d   1      -7.513  -2.377  -0.242  0.00  0.00     0.051 A 
ATOM      6  C13 <0> d   1      -8.903  -2.336  -0.353  0.00  0.00     0.021 A 
ATOM      7  C14 <0> d   1      -9.618  -3.499  -0.398  0.00  0.00     0.038 A 
ATOM      8  C15 <0> d   1      -8.962  -4.726  -0.334  0.00  0.00     0.076 A 
ATOM      9  C16 <0> d   1      -7.582  -4.782  -0.224  0.00  0.00     0.038 A 
ATOM     10  C17 <0> d   1      -6.840  -3.608  -0.177  0.00  0.00     0.101 A 
ATOM     11  O3  <0> d   1      -5.510  -3.396  -0.080  0.00  0.00    -0.305 OA
ENDROOT
BRANCH   1  12
ATOM     12  C8  <0> d   1      -2.787  -2.403   0.002  0.00  0.00     0.000 A 
ATOM     13  C3  <0> d   1      -1.519  -1.863  -0.270  0.00  0.00     0.079 A 
ATOM     14  C4  <0> d   1      -0.409  -2.693  -0.290  0.00  0.00     0.037 A 
ATOM     15  C5  <0> d   1      -0.551  -4.046  -0.049  0.00  0.00     0.003 A 
ATOM     16  C6  <0> d   1      -1.801  -4.585   0.215  0.00  0.00     0.001 A 
ATOM     17  C7  <0> d   1      -2.916  -3.777   0.239  0.00  0.00     0.014 A 
BRANCH  13  18
ATOM     18  O1  <0> d   1      -1.380  -0.534  -0.507  0.00  0.00    -0.351 OA
BRANCH  18  19
ATOM     19  C2  <0> d   1      -0.060  -0.058  -0.777  0.00  0.00     0.171 C 
ATOM     20  C1  <0> d   1      -0.103   1.453  -1.017  0.00  0.00     0.034 C 
ENDBRANCH  18  19
ENDBRANCH  13  18
ENDBRANCH   1  12
BRANCH   9  21
ATOM     21  C18 <0> d   1      -6.885  -6.117  -0.154  0.00  0.00     0.317 C 
BRANCH  21  22
ATOM     22  N1  <0> d   1      -6.550  -6.565  -1.512  0.00  0.00     0.096 N 
ATOM     23  C22 <0> d   1      -6.087  -7.960  -1.507  0.00  0.00     0.303 C 
ATOM     24  C21 <0> d   1      -5.823  -8.413  -2.945  0.00  0.00     0.302 C 
ATOM     25  N2  <0> d   1      -4.821  -7.530  -3.558  0.00  0.00     0.087 N 
ATOM     26  C20 <0> d   1      -5.284  -6.135  -3.563  0.00  0.00     0.302 C 
ATOM     27  C23 <0> d   1      -4.485  -7.978  -4.916  0.00  0.00     0.310 C 
ATOM     28  C19 <0> d   1      -5.547  -5.683  -2.125  0.00  0.00     0.303 C 
ENDBRANCH  21  22
ENDBRANCH   9  21
BRANCH   8  29
ATOM     29  O4  <0> d   1      -9.680  -5.877  -0.379  0.00  0.00    -0.360 OA
ATOM     30  H26 <0> d   1      -9.819  -6.219  -1.273  0.00  0.00     0.217 HD
ENDBRANCH   8  29
TORSDOF 6
