REMARK  6 active torsions:
REMARK  status: ('A' for Active; 'I' for Inactive)
REMARK    1  A    between atoms: C4_4  and  C7_7 
REMARK    2  A    between atoms: C8_8  and  C9_9 
REMARK    3  A    between atoms: C9_9  and  N1_10 
REMARK    4  A    between atoms: N2_13  and  C14_16 
REMARK    5  A    between atoms: C14_16  and  C15_17 
REMARK    6  A    between atoms: C21_25  and  O3_28 
ROOT
ATOM      1  N1  <0> d   1       5.087  -3.681   1.066  0.00  0.00     0.095 N 
ATOM      2  C10 <0> d   1       4.094  -4.753   0.907  0.00  0.00     0.300 C 
ATOM      3  C11 <0> d   1       4.141  -5.673   2.129  0.00  0.00     0.265 C 
ATOM      4  N2  <0> d   1       5.488  -6.244   2.260  0.00  0.00    -0.064 N 
ATOM      5  C12 <0> d   1       6.465  -5.163   2.443  0.00  0.00     0.265 C 
ATOM      6  C13 <0> d   1       6.437  -4.239   1.223  0.00  0.00     0.300 C 
ATOM      7  H25 <0> d   1       5.715  -6.765   1.426  0.00  0.00     0.280 HD
ENDROOT
BRANCH   4   8
ATOM      8  C14 <0> d   1       5.528  -7.141   3.423  0.00  0.00     0.274 C 
BRANCH   8   9
ATOM      9  C15 <0> d   1       6.871  -7.822   3.487  0.00  0.00    -0.014 A 
ATOM     10  C19 <0> d   1       7.133  -9.044   2.721  0.00  0.00     0.009 A 
ATOM     11  C18 <0> d   1       8.402  -9.644   2.807  0.00  0.00     0.090 A 
ATOM     12  C20 <0> d   1       6.146  -9.611   1.911  0.00  0.00     0.051 A 
ATOM     13  O2  <0> d   1       9.353  -9.095   3.595  0.00  0.00    -0.275 OA
ATOM     14  C23 <0> d   1       8.664 -10.799   2.082  0.00  0.00     0.041 A 
ATOM     15  C17 <0> d   1       9.118  -7.979   4.302  0.00  0.00     0.288 A 
ATOM     16  C16 <0> d   1       7.870  -7.322   4.259  0.00  0.00     0.092 A 
ATOM     17  O1  <0> d   1      10.006  -7.521   4.998  0.00  0.00    -0.260 OA
ATOM     18  C22 <0> d   1       7.680 -11.356   1.293  0.00  0.00     0.039 A 
ATOM     19  C21 <0> d   1       6.424 -10.763   1.201  0.00  0.00     0.066 A 
BRANCH  19  20
ATOM     20  O3  <0> d   1       5.468 -11.320   0.411  0.00  0.00    -0.361 OA
ATOM     21  H24 <0> d   1       5.472 -10.994  -0.499  0.00  0.00     0.217 HD
ENDBRANCH  19  20
ENDBRANCH   8   9
ENDBRANCH   4   8
BRANCH   1  22
ATOM     22  C9  <0> d   1       5.033  -2.743  -0.063  0.00  0.00     0.300 C 
BRANCH  22  23
ATOM     23  C8  <0> d   1       3.716  -2.010  -0.046  0.00  0.00     0.004 C 
ATOM     24  C7  <0> d   1       3.695  -0.685  -0.038  0.00  0.00     0.009 C 
BRANCH  24  25
ATOM     25  C4  <0> d   1       2.403   0.034  -0.021  0.00  0.00    -0.036 A 
ATOM     26  C3  <0> d   1       2.377   1.429  -0.013  0.00  0.00     0.011 A 
ATOM     27  C2  <0> d   1       1.168   2.093   0.002  0.00  0.00     0.001 A 
ATOM     28  C1  <0> d   1      -0.017   1.379   0.010  0.00  0.00     0.000 A 
ATOM     29  C6  <0> d   1       0.002  -0.004   0.002  0.00  0.00     0.001 A 
ATOM     30  C5  <0> d   1       1.204  -0.681  -0.013  0.00  0.00     0.011 A 
ENDBRANCH  24  25
ENDBRANCH  22  23
ENDBRANCH   1  22
TORSDOF 6
