REMARK  9 active torsions:
REMARK  status: ('A' for Active; 'I' for Inactive)
REMARK    1  A    between atoms: O1_2  and  C2_3 
REMARK    2  A    between atoms: C6_7  and  O2_9 
REMARK    3  A    between atoms: O2_9  and  C8_10 
REMARK    4  A    between atoms: C14_17  and  C18_25 
REMARK    5  A    between atoms: C16_20  and  C17_21 
REMARK    6  A    between atoms: C18_25  and  N1_26 
REMARK    7  A    between atoms: N2_29  and  C23_32 
REMARK    8  A    between atoms: C23_32  and  C24_33 
REMARK    9  A    between atoms: C24_33  and  O5_34 
ROOT
ATOM      1  C8  <0> d   1      -2.415   4.232  -0.053  0.00  0.00     0.165 A 
ATOM      2  C9  <0> d   1      -1.118   4.818  -0.003  0.00  0.00     0.221 A 
ATOM      3  O3  <0> d   1      -0.968   6.028   0.011  0.00  0.00    -0.284 OA
ATOM      4  C10 <0> d   1       0.035   3.901   0.015  0.00  0.00     0.052 A 
ATOM      5  C11 <0> d   1       1.345   4.381   0.049  0.00  0.00     0.021 A 
ATOM      6  C12 <0> d   1       2.388   3.501   0.064  0.00  0.00     0.041 A 
ATOM      7  C13 <0> d   1       2.152   2.127   0.046  0.00  0.00     0.118 A 
ATOM      8  C14 <0> d   1       0.858   1.636   0.013  0.00  0.00     0.041 A 
ATOM      9  C15 <0> d   1      -0.213   2.518  -0.008  0.00  0.00     0.101 A 
ATOM     10  O4  <0> d   1      -1.483   2.066  -0.046  0.00  0.00    -0.301 OA
ATOM     11  C16 <0> d   1      -2.538   2.890  -0.068  0.00  0.00     0.197 A 
ATOM     12  O6  <0> d   1       3.200   1.264   0.061  0.00  0.00    -0.191 OA
ENDROOT
BRANCH   8  13
ATOM     13  C18 <0> d   1       0.615   0.149  -0.006  0.00  0.00     0.317 C 
BRANCH  13  14
ATOM     14  N1  <0> d   1       0.505  -0.348   1.372  0.00  0.00     0.096 N 
ATOM     15  C22 <0> d   1       0.035  -1.740   1.395  0.00  0.00     0.303 C 
ATOM     16  C21 <0> d   1      -0.141  -2.192   2.846  0.00  0.00     0.302 C 
ATOM     17  N2  <0> d   1       1.138  -2.060   3.557  0.00  0.00     0.093 N 
ATOM     18  C20 <0> d   1       1.609  -0.668   3.534  0.00  0.00     0.302 C 
ATOM     19  C19 <0> d   1       1.785  -0.215   2.083  0.00  0.00     0.303 C 
BRANCH  17  20
ATOM     20  C23 <0> d   1       1.029  -2.556   4.935  0.00  0.00     0.298 C 
BRANCH  20  21
ATOM     21  C24 <0> d   1       1.020  -4.086   4.927  0.00  0.00     0.194 C 
BRANCH  21  22
ATOM     22  O5  <0> d   1       2.275  -4.568   4.443  0.00  0.00    -0.399 OA
ATOM     23  H24 <0> d   1       2.456  -5.650   4.365  0.00  0.00     0.209 HD
ENDBRANCH  21  22
ENDBRANCH  20  21
ENDBRANCH  17  20
ENDBRANCH  13  14
ENDBRANCH   8  13
BRANCH  11  24
ATOM     24  C17 <0> d   1      -3.921   2.292  -0.110  0.00  0.00     0.442 C 
ATOM     25  F1  <0> d   1      -4.313   2.118  -1.441  0.00  0.00    -0.164 F 
ATOM     26  F2  <0> d   1      -3.913   1.054   0.541  0.00  0.00    -0.164 F 
ATOM     27  F3  <0> d   1      -4.820   3.151   0.533  0.00  0.00    -0.164 F 
ENDBRANCH  11  24
BRANCH   1  28
ATOM     28  O2  <0> d   1      -3.523   5.022  -0.077  0.00  0.00    -0.304 OA
BRANCH  28  29
ATOM     29  C6  <0> d   1      -4.076   5.383   1.111  0.00  0.00     0.079 A 
ATOM     30  C5  <0> d   1      -3.513   4.942   2.300  0.00  0.00     0.037 A 
ATOM     31  C4  <0> d   1      -4.072   5.312   3.509  0.00  0.00     0.005 A 
ATOM     32  C3  <0> d   1      -5.197   6.113   3.536  0.00  0.00     0.037 A 
ATOM     33  C2  <0> d   1      -5.767   6.552   2.349  0.00  0.00     0.070 A 
ATOM     34  C7  <0> d   1      -5.206   6.187   1.135  0.00  0.00     0.074 A 
BRANCH  33  35
ATOM     35  O1  <0> d   1      -6.874   7.340   2.376  0.00  0.00    -0.356 OA
ATOM     36  C1  <0> d   1      -7.399   7.677   3.662  0.00  0.00     0.210 C 
ENDBRANCH  33  35
ENDBRANCH  28  29
ENDBRANCH   1  28
TORSDOF 9
