REMARK  7 active torsions:
REMARK  status: ('A' for Active; 'I' for Inactive)
REMARK    1  A    between atoms: C2_2  and  N1_3 
REMARK    2  A    between atoms: N2_6  and  C7_9 
REMARK    3  A    between atoms: C7_9  and  C8_10 
REMARK    4  A    between atoms: C9_11  and  O4_33 
REMARK    5  A    between atoms: C14_17  and  C24_29 
REMARK    6  A    between atoms: C15_18  and  C17_21 
REMARK    7  A    between atoms: C20_24  and  O3_27 
ROOT
ATOM      1  C8  <0> d   1      -0.075   1.899   1.137  0.00  0.00     0.038 A 
ATOM      2  C9  <0> d   1       1.060   2.692   1.133  0.00  0.00     0.076 A 
ATOM      3  C10 <0> d   1       1.028   3.974   0.588  0.00  0.00     0.038 A 
ATOM      4  C11 <0> d   1      -0.128   4.465   0.051  0.00  0.00     0.021 A 
ATOM      5  C12 <0> d   1      -1.280   3.678   0.048  0.00  0.00     0.050 A 
ATOM      6  C13 <0> d   1      -1.256   2.381   0.591  0.00  0.00     0.101 A 
ATOM      7  O1  <0> d   1      -2.372   1.624   0.592  0.00  0.00    -0.303 OA
ATOM      8  C14 <0> d   1      -3.537   2.036   0.085  0.00  0.00     0.174 A 
ATOM      9  C15 <0> d   1      -3.699   3.263  -0.473  0.00  0.00     0.064 A 
ATOM     10  C16 <0> d   1      -2.544   4.176  -0.523  0.00  0.00     0.198 A 
ATOM     11  O2  <0> d   1      -2.630   5.289  -1.012  0.00  0.00    -0.286 OA
ENDROOT
BRANCH   1  12
ATOM     12  C7  <0> d   1      -0.026   0.513   1.729  0.00  0.00     0.317 C 
BRANCH  12  13
ATOM     13  N2  <0> d   1      -0.365   0.579   3.157  0.00  0.00     0.096 N 
ATOM     14  C4  <0> d   1      -0.560  -0.767   3.714  0.00  0.00     0.303 C 
ATOM     15  C3  <0> d   1      -0.989  -0.653   5.179  0.00  0.00     0.302 C 
ATOM     16  N1  <0> d   1       0.039   0.081   5.931  0.00  0.00     0.091 N 
ATOM     17  C6  <0> d   1       0.234   1.427   5.374  0.00  0.00     0.302 C 
ATOM     18  C5  <0> d   1       0.662   1.313   3.909  0.00  0.00     0.303 C 
BRANCH  16  19
ATOM     19  C2  <0> d   1      -0.300   0.146   7.359  0.00  0.00     0.268 C 
ATOM     20  C1  <0> d   1       0.896   0.691   8.142  0.00  0.00     0.037 C 
ENDBRANCH  16  19
ENDBRANCH  12  13
ENDBRANCH   1  12
BRANCH   2  21
ATOM     21  O4  <0> d   1       2.216   2.215   1.663  0.00  0.00    -0.360 OA
ATOM     22  H25 <0> d   1       3.120   2.841   1.662  0.00  0.00     0.217 HD
ENDBRANCH   2  21
BRANCH   8  23
ATOM     23  C24 <0> d   1      -4.719   1.102   0.136  0.00  0.00     0.440 C 
ATOM     24  F1  <0> d   1      -5.046   0.693  -1.161  0.00  0.00    -0.164 F 
ATOM     25  F2  <0> d   1      -4.395  -0.018   0.910  0.00  0.00    -0.164 F 
ATOM     26  F3  <0> d   1      -5.811   1.763   0.707  0.00  0.00    -0.164 F 
ENDBRANCH   8  23
BRANCH   9  27
ATOM     27  C17 <0> d   1      -5.013   3.675  -1.024  0.00  0.00    -0.019 A 
ATOM     28  C22 <0> d   1      -5.766   4.653  -0.375  0.00  0.00     0.015 A 
ATOM     29  C21 <0> d   1      -6.987   5.035  -0.889  0.00  0.00     0.037 A 
ATOM     30  C20 <0> d   1      -7.467   4.447  -2.052  0.00  0.00     0.068 A 
ATOM     31  C19 <0> d   1      -6.720   3.474  -2.700  0.00  0.00     0.037 A 
ATOM     32  C18 <0> d   1      -5.495   3.091  -2.194  0.00  0.00     0.015 A 
BRANCH  30  33
ATOM     33  O3  <0> d   1      -8.671   4.826  -2.557  0.00  0.00    -0.356 OA
ATOM     34  C23 <0> d   1      -9.104   4.180  -3.756  0.00  0.00     0.210 C 
ENDBRANCH  30  33
ENDBRANCH   9  27
TORSDOF 7
