REMARK  6 active torsions:
REMARK  status: ('A' for Active; 'I' for Inactive)
REMARK    1  A    between atoms: N2_5  and  C6_8 
REMARK    2  A    between atoms: C6_8  and  C7_9 
REMARK    3  A    between atoms: C8_10  and  O5_30 
REMARK    4  A    between atoms: C14_17  and  C15_18 
REMARK    5  A    between atoms: C18_21  and  O3_26 
REMARK    6  A    between atoms: C19_22  and  O2_24 
ROOT
ATOM      1  C7  <0> d   1       2.239  -4.062   1.258  0.00  0.00     0.036 A 
ATOM      2  C8  <0> d   1       3.563  -4.391   1.020  0.00  0.00     0.076 A 
ATOM      3  C9  <0> d   1       4.280  -5.152   1.939  0.00  0.00     0.038 A 
ATOM      4  C10 <0> d   1       3.680  -5.582   3.089  0.00  0.00     0.021 A 
ATOM      5  C11 <0> d   1       2.347  -5.258   3.342  0.00  0.00     0.051 A 
ATOM      6  C12 <0> d   1       1.616  -4.487   2.425  0.00  0.00     0.101 A 
ATOM      7  O1  <0> d   1       0.360  -4.299   2.886  0.00  0.00    -0.305 OA
ATOM      8  C13 <0> d   1       0.171  -4.896   4.087  0.00  0.00     0.127 A 
ATOM      9  C14 <0> d   1      -0.976  -4.892   4.812  0.00  0.00     0.053 C 
ATOM     10  C23 <0> d   1       1.430  -5.559   4.456  0.00  0.00     0.218 A 
ATOM     11  O4  <0> d   1       1.667  -6.202   5.465  0.00  0.00    -0.284 OA
ENDROOT
BRANCH   9  12
ATOM     12  C15 <0> d   1      -2.202  -4.317   4.245  0.00  0.00    -0.031 A 
ATOM     13  C20 <0> d   1      -3.341  -4.161   5.045  0.00  0.00     0.051 A 
ATOM     14  C19 <0> d   1      -4.488  -3.613   4.507  0.00  0.00     0.102 A 
ATOM     15  C18 <0> d   1      -4.516  -3.229   3.166  0.00  0.00     0.101 A 
ATOM     16  C17 <0> d   1      -3.389  -3.389   2.370  0.00  0.00     0.040 A 
ATOM     17  C16 <0> d   1      -2.238  -3.928   2.900  0.00  0.00     0.014 A 
BRANCH  14  18
ATOM     18  O2  <0> d   1      -5.593  -3.453   5.282  0.00  0.00    -0.353 OA
ATOM     19  C21 <0> d   1      -5.495  -3.869   6.646  0.00  0.00     0.210 C 
ENDBRANCH  14  18
BRANCH  15  20
ATOM     20  O3  <0> d   1      -5.648  -2.696   2.638  0.00  0.00    -0.353 OA
ATOM     21  C22 <0> d   1      -5.607  -2.323   1.259  0.00  0.00     0.210 C 
ENDBRANCH  15  20
ENDBRANCH   9  12
BRANCH   1  22
ATOM     22  C6  <0> d   1       1.475  -3.237   0.254  0.00  0.00     0.279 C 
BRANCH  22  23
ATOM     23  N2  <0> d   1       1.636  -1.811   0.568  0.00  0.00    -0.064 N 
ATOM     24  C3  <0> d   1       0.993  -1.004  -0.478  0.00  0.00     0.265 C 
ATOM     25  C2  <0> d   1       1.176   0.482  -0.161  0.00  0.00     0.299 C 
ATOM     26  N1  <0> d   1       0.578   0.778   1.148  0.00  0.00     0.087 N 
ATOM     27  C1  <0> d   1       0.684   2.209   1.464  0.00  0.00     0.310 C 
ATOM     28  C5  <0> d   1       1.195  -0.041   2.201  0.00  0.00     0.299 C 
ATOM     29  C4  <0> d   1       1.011  -1.522   1.865  0.00  0.00     0.265 C 
ATOM     30  H27 <0> d   1       2.618  -1.585   0.610  0.00  0.00     0.280 HD
ENDBRANCH  22  23
ENDBRANCH   1  22
BRANCH   2  31
ATOM     31  O5  <0> d   1       4.167  -3.968  -0.120  0.00  0.00    -0.360 OA
ATOM     32  H26 <0> d   1       4.600  -3.107  -0.040  0.00  0.00     0.217 HD
ENDBRANCH   2  31
TORSDOF 6
