REMARK  6 active torsions:
REMARK  status: ('A' for Active; 'I' for Inactive)
REMARK    1  A    between atoms: C5_5  and  C16_19 
REMARK    2  A    between atoms: C10_11  and  C11_12 
REMARK    3  A    between atoms: C16_19  and  N2_20 
REMARK    4  A    between atoms: N3_23  and  C21_26 
REMARK    5  A    between atoms: C21_26  and  C22_27 
REMARK    6  A    between atoms: C22_27  and  O3_28 
ROOT
ATOM      1  C1  <0> d   1      -0.900   5.669   0.774  0.00  0.00     0.049 C 
ATOM      2  C2  <0> d   1      -0.809   4.171   0.630  0.00  0.00    -0.042 A 
ATOM      3  C3  <0> d   1       0.413   3.561   0.585  0.00  0.00     0.048 A 
ATOM      4  C4  <0> d   1       0.499   2.178   0.450  0.00  0.00     0.118 A 
ATOM      5  C5  <0> d   1      -0.648   1.406   0.361  0.00  0.00     0.039 A 
ATOM      6  C6  <0> d   1      -1.898   2.010   0.400  0.00  0.00     0.102 A 
ATOM      7  C7  <0> d   1      -1.972   3.406   0.541  0.00  0.00     0.057 A 
ATOM      8  C8  <0> d   1      -3.406   3.746   0.557  0.00  0.00     0.219 A 
ATOM      9  O1  <0> d   1      -3.910   4.850   0.660  0.00  0.00    -0.284 OA
ATOM     10  C9  <0> d   1      -4.094   2.449   0.423  0.00  0.00     0.128 A 
ATOM     11  C10 <0> d   1      -5.434   2.252   0.388  0.00  0.00     0.053 C 
ATOM     12  O2  <0> d   1      -3.143   1.490   0.340  0.00  0.00    -0.305 OA
ATOM     13  O4  <0> d   1       1.718   1.582   0.406  0.00  0.00    -0.191 OA
ENDROOT
BRANCH   5  14
ATOM     14  C16 <0> d   1      -0.539  -0.090   0.216  0.00  0.00     0.279 C 
BRANCH  14  15
ATOM     15  N2  <0> d   1      -0.520  -0.712   1.547  0.00  0.00    -0.064 N 
ATOM     16  C20 <0> d   1      -0.654  -2.172   1.449  0.00  0.00     0.265 C 
ATOM     17  C19 <0> d   1      -0.709  -2.772   2.856  0.00  0.00     0.300 C 
ATOM     18  N3  <0> d   1       0.510  -2.406   3.590  0.00  0.00     0.093 N 
ATOM     19  C18 <0> d   1       0.643  -0.946   3.688  0.00  0.00     0.300 C 
ATOM     20  C17 <0> d   1       0.699  -0.345   2.282  0.00  0.00     0.265 C 
ATOM     21  H25 <0> d   1      -1.384  -0.328   2.110  0.00  0.00     0.280 HD
BRANCH  18  22
ATOM     22  C21 <0> d   1       0.529  -3.027   4.921  0.00  0.00     0.298 C 
BRANCH  22  23
ATOM     23  C22 <0> d   1      -0.433  -2.279   5.847  0.00  0.00     0.194 C 
BRANCH  23  24
ATOM     24  O3  <0> d   1      -1.774  -2.464   5.391  0.00  0.00    -0.399 OA
ATOM     25  H24 <0> d   1      -2.609  -1.998   5.934  0.00  0.00     0.209 HD
ENDBRANCH  23  24
ENDBRANCH  22  23
ENDBRANCH  18  22
ENDBRANCH  14  15
ENDBRANCH   5  14
BRANCH  11  26
ATOM     26  C11 <0> d   1      -5.977   0.885   0.365  0.00  0.00    -0.031 A 
ATOM     27  C15 <0> d   1      -5.129  -0.227   0.251  0.00  0.00     0.030 A 
ATOM     28  C14 <0> d   1      -5.683  -1.490   0.234  0.00  0.00     0.117 A 
ATOM     29  N1  <0> d   1      -6.988  -1.660   0.323  0.00  0.00    -0.273 NA
ATOM     30  C13 <0> d   1      -7.822  -0.644   0.431  0.00  0.00     0.117 A 
ATOM     31  C12 <0> d   1      -7.357   0.655   0.462  0.00  0.00     0.030 A 
ENDBRANCH  11  26
TORSDOF 6
