REMARK  8 active torsions:
REMARK  status: ('A' for Active; 'I' for Inactive)
REMARK    1  A    between atoms: C3_3  and  O3_24 
REMARK    2  A    between atoms: C6_6  and  C8_9 
REMARK    3  A    between atoms: C7_7  and  O1_8 
REMARK    4  A    between atoms: C9_10  and  C12_16 
REMARK    5  A    between atoms: C15_19  and  O2_22 
REMARK    6  A    between atoms: O3_24  and  C19_25 
REMARK    7  A    between atoms: C19_25  and  C20_26 
REMARK    8  A    between atoms: C20_26  and  N3_27 
ROOT
ATOM      1  C1  <0> d   1       0.588   1.173  -0.384  0.00  0.00     0.054 C 
ATOM      2  C2  <0> d   1       0.443  -0.322  -0.269  0.00  0.00     0.005 A 
ATOM      3  C3  <0> d   1       0.392  -1.104  -1.414  0.00  0.00     0.077 A 
ATOM      4  C4  <0> d   1       0.258  -2.483  -1.313  0.00  0.00     0.038 A 
ATOM      5  C5  <0> d   1       0.175  -3.082  -0.073  0.00  0.00     0.019 A 
ATOM      6  C6  <0> d   1       0.226  -2.304   1.081  0.00  0.00     0.029 A 
ATOM      7  C7  <0> d   1       0.366  -0.916   0.979  0.00  0.00     0.087 A 
ENDROOT
BRANCH   6   8
ATOM      8  C8  <0> d   1       0.138  -2.946   2.415  0.00  0.00     0.103 A 
ATOM      9  N2  <0> d   1       0.923  -2.709   3.443  0.00  0.00    -0.173 NA
ATOM     10  N1  <0> d   1       0.509  -3.513   4.511  0.00  0.00    -0.281 N 
ATOM     11  C10 <0> d   1      -0.544  -4.253   4.105  0.00  0.00     0.037 A 
ATOM     12  H1  <0> d   1       0.912  -3.537   5.393  0.00  0.00     0.189 HD
ATOM     13  C9  <0> d   1      -0.805  -3.930   2.807  0.00  0.00     0.029 A 
ATOM     14  C11 <0> d   1      -1.296  -5.258   4.938  0.00  0.00     0.070 C 
BRANCH  13  15
ATOM     15  C12 <0> d   1      -1.880  -4.502   1.960  0.00  0.00    -0.021 A 
ATOM     16  C17 <0> d   1      -1.836  -5.844   1.587  0.00  0.00     0.015 A 
ATOM     17  C16 <0> d   1      -2.840  -6.375   0.804  0.00  0.00     0.037 A 
ATOM     18  C15 <0> d   1      -3.888  -5.570   0.378  0.00  0.00     0.068 A 
ATOM     19  C14 <0> d   1      -3.932  -4.232   0.742  0.00  0.00     0.037 A 
ATOM     20  C13 <0> d   1      -2.934  -3.697   1.530  0.00  0.00     0.015 A 
BRANCH  18  21
ATOM     21  O2  <0> d   1      -4.873  -6.095  -0.398  0.00  0.00    -0.356 OA
ATOM     22  C18 <0> d   1      -4.765  -7.479  -0.736  0.00  0.00     0.210 C 
ENDBRANCH  18  21
ENDBRANCH  13  15
ENDBRANCH   6   8
BRANCH   7  23
ATOM     23  O1  <0> d   1       0.422  -0.152   2.101  0.00  0.00    -0.359 OA
ATOM     24  H9  <0> d   1      -0.442   0.153   2.412  0.00  0.00     0.217 HD
ENDBRANCH   7  23
BRANCH   3  25
ATOM     25  O3  <0> d   1       0.472  -0.519  -2.638  0.00  0.00    -0.349 OA
BRANCH  25  26
ATOM     26  C19 <0> d   1       0.413  -1.383  -3.775  0.00  0.00     0.206 C 
BRANCH  26  27
ATOM     27  C20 <0> d   1       0.518  -0.550  -5.054  0.00  0.00     0.299 C 
BRANCH  27  28
ATOM     28  N3  <0> d   1       1.841   0.085  -5.117  0.00  0.00     0.095 N 
ATOM     29  C24 <0> d   1       1.898   1.076  -6.201  0.00  0.00     0.303 C 
ATOM     30  C23 <0> d   1       3.271   1.755  -6.193  0.00  0.00     0.146 C 
ATOM     31  O4  <0> d   1       4.290   0.759  -6.315  0.00  0.00    -0.378 OA
ATOM     32  C25 <0> d   1       3.366   2.731  -7.368  0.00  0.00     0.041 C 
ATOM     33  C22 <0> d   1       4.264  -0.222  -5.275  0.00  0.00     0.146 C 
ATOM     34  C21 <0> d   1       2.902  -0.921  -5.274  0.00  0.00     0.303 C 
ATOM     35  C26 <0> d   1       5.367  -1.254  -5.518  0.00  0.00     0.041 C 
ENDBRANCH  27  28
ENDBRANCH  26  27
ENDBRANCH  25  26
ENDBRANCH   3  25
TORSDOF 8
