REMARK  8 active torsions:
REMARK  status: ('A' for Active; 'I' for Inactive)
REMARK    1  A    between atoms: C4_4  and  C7_7 
REMARK    2  A    between atoms: C9_12  and  C10_13 
REMARK    3  A    between atoms: C13_16  and  O2_20 
REMARK    4  A    between atoms: C15_18  and  O1_19 
REMARK    5  A    between atoms: O2_20  and  C16_21 
REMARK    6  A    between atoms: C16_21  and  C17_22 
REMARK    7  A    between atoms: C17_22  and  N3_23 
REMARK    8  A    between atoms: N4_26  and  C22_29 
ROOT
ATOM      1  C10 <0> d   1       3.704  -2.997   2.335  0.00  0.00     0.029 A 
ATOM      2  C11 <0> d   1       2.432  -2.431   2.262  0.00  0.00     0.019 A 
ATOM      3  C12 <0> d   1       1.512  -2.672   3.260  0.00  0.00     0.038 A 
ATOM      4  C13 <0> d   1       1.848  -3.478   4.340  0.00  0.00     0.071 A 
ATOM      5  C14 <0> d   1       3.111  -4.045   4.421  0.00  0.00     0.074 A 
ATOM      6  C15 <0> d   1       4.040  -3.813   3.420  0.00  0.00     0.081 A 
ENDROOT
BRANCH   4   7
ATOM      7  O2  <0> d   1       0.937  -3.712   5.320  0.00  0.00    -0.349 OA
BRANCH   7   8
ATOM      8  C16 <0> d   1      -0.345  -3.098   5.175  0.00  0.00     0.206 C 
BRANCH   8   9
ATOM      9  C17 <0> d   1      -1.229  -3.473   6.366  0.00  0.00     0.299 C 
BRANCH   9  10
ATOM     10  N3  <0> d   1      -0.650  -2.921   7.598  0.00  0.00     0.093 N 
ATOM     11  C21 <0> d   1      -0.887  -1.475   7.689  0.00  0.00     0.292 C 
ATOM     12  C20 <0> d   1      -0.118  -0.909   8.888  0.00  0.00     0.153 C 
ATOM     13  N4  <0> d   1      -0.489  -1.677  10.086  0.00  0.00    -0.375 N 
ATOM     14  C19 <0> d   1      -0.409  -3.144  10.025  0.00  0.00     0.153 C 
ATOM     15  C18 <0> d   1      -1.167  -3.622   8.781  0.00  0.00     0.292 C 
BRANCH  13  16
ATOM     16  C22 <0> d   1      -0.907  -1.029  11.253  0.00  0.00     0.069 A 
ATOM     17  C27 <0> d   1      -2.256  -0.753  11.452  0.00  0.00     0.142 A 
ATOM     18  C26 <0> d   1      -2.666  -0.117  12.610  0.00  0.00     0.044 A 
ATOM     19  F1  <0> d   1      -3.165  -1.110  10.518  0.00  0.00    -0.204 F 
ATOM     20  C25 <0> d   1      -1.734   0.253  13.562  0.00  0.00     0.003 A 
ATOM     21  C24 <0> d   1      -0.393  -0.015  13.364  0.00  0.00     0.002 A 
ATOM     22  C23 <0> d   1       0.023  -0.655  12.213  0.00  0.00     0.032 A 
ENDBRANCH  13  16
ENDBRANCH   9  10
ENDBRANCH   8   9
ENDBRANCH   7   8
ENDBRANCH   4   7
BRANCH   6  23
ATOM     23  O1  <0> d   1       5.276  -4.372   3.495  0.00  0.00    -0.360 OA
ATOM     24  H11 <0> d   1       5.926  -3.827   3.958  0.00  0.00     0.217 HD
ENDBRANCH   6  23
BRANCH   1  25
ATOM     25  C9  <0> d   1       4.695  -2.739   1.264  0.00  0.00     0.102 A 
ATOM     26  C7  <0> d   1       4.458  -2.825  -0.132  0.00  0.00     0.022 A 
ATOM     27  C8  <0> d   1       5.623  -2.506  -0.764  0.00  0.00     0.124 A 
ATOM     28  N1  <0> d   1       6.547  -2.239   0.180  0.00  0.00    -0.288 N 
ATOM     29  H1  <0> d   1       7.468  -1.983   0.016  0.00  0.00     0.188 HD
ATOM     30  N2  <0> d   1       5.952  -2.393   1.438  0.00  0.00    -0.174 NA
BRANCH  26  31
ATOM     31  C4  <0> d   1       3.176  -3.189  -0.783  0.00  0.00    -0.022 A 
ATOM     32  C3  <0> d   1       2.596  -2.330  -1.714  0.00  0.00     0.012 A 
ATOM     33  C2  <0> d   1       1.404  -2.674  -2.318  0.00  0.00     0.001 A 
ATOM     34  C1  <0> d   1       0.785  -3.869  -2.001  0.00  0.00     0.000 A 
ATOM     35  C6  <0> d   1       1.356  -4.726  -1.077  0.00  0.00     0.001 A 
ATOM     36  C5  <0> d   1       2.548  -4.392  -0.467  0.00  0.00     0.012 A 
ENDBRANCH  26  31
ENDBRANCH   1  25
TORSDOF 8
