REMARK  6 active torsions:
REMARK  status: ('A' for Active; 'I' for Inactive)
REMARK    1  A    between atoms: C5_5  and  C17_19 
REMARK    2  A    between atoms: C10_11  and  C11_12 
REMARK    3  A    between atoms: C17_19  and  N1_20 
REMARK    4  A    between atoms: N2_23  and  C22_26 
REMARK    5  A    between atoms: C22_26  and  C23_27 
REMARK    6  A    between atoms: C23_27  and  O3_28 
ROOT
ATOM      1  C1  <0> d   1      -0.938   5.679   0.908  0.00  0.00     0.049 C 
ATOM      2  C2  <0> d   1      -0.850   4.184   0.737  0.00  0.00    -0.042 A 
ATOM      3  C3  <0> d   1       0.370   3.570   0.701  0.00  0.00     0.048 A 
ATOM      4  C4  <0> d   1       0.453   2.189   0.543  0.00  0.00     0.118 A 
ATOM      5  C5  <0> d   1      -0.696   1.423   0.420  0.00  0.00     0.039 A 
ATOM      6  C6  <0> d   1      -1.943   2.033   0.449  0.00  0.00     0.102 A 
ATOM      7  C7  <0> d   1      -2.015   3.425   0.615  0.00  0.00     0.057 A 
ATOM      8  C8  <0> d   1      -3.448   3.771   0.614  0.00  0.00     0.219 A 
ATOM      9  O1  <0> d   1      -3.949   4.876   0.728  0.00  0.00    -0.284 OA
ATOM     10  C9  <0> d   1      -4.138   2.482   0.445  0.00  0.00     0.128 A 
ATOM     11  C10 <0> d   1      -5.479   2.293   0.384  0.00  0.00     0.053 C 
ATOM     12  O2  <0> d   1      -3.190   1.520   0.360  0.00  0.00    -0.305 OA
ATOM     13  O4  <0> d   1       1.669   1.588   0.508  0.00  0.00    -0.191 OA
ENDROOT
BRANCH   5  14
ATOM     14  C17 <0> d   1      -0.590  -0.070   0.248  0.00  0.00     0.279 C 
BRANCH  14  15
ATOM     15  N1  <0> d   1      -0.596  -0.716   1.568  0.00  0.00    -0.064 N 
ATOM     16  C21 <0> d   1      -0.734  -2.174   1.440  0.00  0.00     0.265 C 
ATOM     17  C20 <0> d   1      -0.815  -2.800   2.834  0.00  0.00     0.300 C 
ATOM     18  N2  <0> d   1       0.393  -2.453   3.595  0.00  0.00     0.093 N 
ATOM     19  C19 <0> d   1       0.530  -0.995   3.723  0.00  0.00     0.300 C 
ATOM     20  C18 <0> d   1       0.612  -0.369   2.329  0.00  0.00     0.265 C 
ATOM     21  H26 <0> d   1      -1.468  -0.340   2.123  0.00  0.00     0.280 HD
BRANCH  18  22
ATOM     22  C22 <0> d   1       0.387  -3.099   4.915  0.00  0.00     0.298 C 
BRANCH  22  23
ATOM     23  C23 <0> d   1      -0.589  -2.366   5.838  0.00  0.00     0.194 C 
BRANCH  23  24
ATOM     24  O3  <0> d   1      -1.922  -2.538   5.355  0.00  0.00    -0.399 OA
ATOM     25  H25 <0> d   1      -2.766  -2.080   5.892  0.00  0.00     0.209 HD
ENDBRANCH  23  24
ENDBRANCH  22  23
ENDBRANCH  18  22
ENDBRANCH  14  15
ENDBRANCH   5  14
BRANCH  11  26
ATOM     26  C11 <0> d   1      -6.028   0.931   0.327  0.00  0.00    -0.034 A 
ATOM     27  C16 <0> d   1      -5.170  -0.168   0.203  0.00  0.00     0.011 A 
ATOM     28  C15 <0> d   1      -5.693  -1.443   0.150  0.00  0.00     0.001 A 
ATOM     29  C14 <0> d   1      -7.061  -1.637   0.220  0.00  0.00     0.000 A 
ATOM     30  C13 <0> d   1      -7.917  -0.556   0.343  0.00  0.00     0.001 A 
ATOM     31  C12 <0> d   1      -7.410   0.725   0.402  0.00  0.00     0.011 A 
ENDBRANCH  11  26
TORSDOF 6
