REMARK  5 active torsions:
REMARK  status: ('A' for Active; 'I' for Inactive)
REMARK    1  A    between atoms: N1_7  and  C7_8 
REMARK    2  A    between atoms: C7_8  and  C8_9 
REMARK    3  A    between atoms: C9_10  and  O4_32 
REMARK    4  A    between atoms: C15_17  and  C16_18 
REMARK    5  A    between atoms: C21_24  and  O2_27 
ROOT
ATOM      1  C8  <0> d   1      -0.018   1.503   0.010  0.00  0.00     0.036 A 
ATOM      2  C9  <0> d   1      -1.227   2.180   0.020  0.00  0.00     0.076 A 
ATOM      3  C10 <0> d   1      -1.258   3.572   0.032  0.00  0.00     0.038 A 
ATOM      4  C11 <0> d   1      -0.093   4.286   0.025  0.00  0.00     0.021 A 
ATOM      5  C12 <0> d   1       1.131   3.618   0.010  0.00  0.00     0.051 A 
ATOM      6  C13 <0> d   1       1.173   2.214   0.003  0.00  0.00     0.101 A 
ATOM      7  O1  <0> d   1       2.465   1.819  -0.011  0.00  0.00    -0.305 OA
ATOM      8  C14 <0> d   1       3.307   2.879  -0.014  0.00  0.00     0.128 A 
ATOM      9  C15 <0> d   1       4.668   2.814  -0.026  0.00  0.00     0.055 C 
ATOM     10  C26 <0> d   1       2.533   4.069  -0.001  0.00  0.00     0.218 A 
ATOM     11  O3  <0> d   1       2.942   5.219   0.002  0.00  0.00    -0.284 OA
ENDROOT
BRANCH   9  12
ATOM     12  C16 <0> d   1       5.338   1.516  -0.039  0.00  0.00    -0.005 A 
ATOM     13  C19 <0> d   1       6.793   1.270  -0.059  0.00  0.00     0.005 A 
ATOM     14  C18 <0> d   1       6.950  -0.125  -0.063  0.00  0.00     0.045 A 
ATOM     15  C20 <0> d   1       7.910   2.100  -0.059  0.00  0.00     0.051 A 
ATOM     16  N2  <0> d   1       5.689  -0.689  -0.055  0.00  0.00    -0.360 N 
ATOM     17  C23 <0> d   1       8.231  -0.668  -0.078  0.00  0.00     0.033 A 
ATOM     18  C17 <0> d   1       4.736   0.275  -0.041  0.00  0.00     0.103 A 
ATOM     19  C25 <0> d   1       5.419  -2.129  -0.062  0.00  0.00     0.156 C 
ATOM     20  C22 <0> d   1       9.331   0.161  -0.083  0.00  0.00     0.039 A 
ATOM     21  C21 <0> d   1       9.176   1.543  -0.073  0.00  0.00     0.069 A 
BRANCH  21  22
ATOM     22  O2  <0> d   1      10.271   2.349  -0.077  0.00  0.00    -0.356 OA
ATOM     23  C24 <0> d   1      11.548   1.707  -0.092  0.00  0.00     0.210 C 
ENDBRANCH  21  22
ENDBRANCH   9  12
BRANCH   1  24
ATOM     24  C7  <0> d   1       0.002  -0.004   0.002  0.00  0.00     0.279 C 
BRANCH  24  25
ATOM     25  N1  <0> d   1       0.022  -0.501   1.384  0.00  0.00    -0.063 N 
ATOM     26  C2  <0> d   1      -0.196  -1.953   1.425  0.00  0.00     0.184 C 
ATOM     27  C1  <0> d   1       0.821  -2.647   0.516  0.00  0.00     0.040 C 
ATOM     28  C3  <0> d   1      -0.025  -2.456   2.860  0.00  0.00     0.033 C 
ATOM     29  C4  <0> d   1      -1.031  -1.744   3.768  0.00  0.00     0.004 C 
ATOM     30  C5  <0> d   1      -0.814  -0.232   3.671  0.00  0.00     0.028 C 
ATOM     31  C6  <0> d   1      -0.963   0.207   2.212  0.00  0.00     0.235 C 
ATOM     32  H28 <0> d   1       1.019  -0.300   1.803  0.00  0.00     0.280 HD
ENDBRANCH  24  25
ENDBRANCH   1  24
BRANCH   2  33
ATOM     33  O4  <0> d   1      -2.391   1.481   0.021  0.00  0.00    -0.360 OA
ATOM     34  H29 <0> d   1      -3.353   2.014   0.029  0.00  0.00     0.217 HD
ENDBRANCH   2  33
TORSDOF 5
