REMARK  1 active torsions:
REMARK  status: ('A' for Active; 'I' for Inactive)
REMARK    1  A    between atoms: C8_10  and  C9_11 
ROOT
ATOM      1  C9  <0> d   1      -3.495   2.763  -0.038  0.00  0.00     0.036 A 
ATOM      2  C10 <0> d   1      -4.848   2.451  -0.022  0.00  0.00     0.031 A 
ATOM      3  C11 <0> d   1      -5.795   3.497  -0.074  0.00  0.00    -0.006 A 
ATOM      4  C12 <0> d   1      -7.170   3.207  -0.054  0.00  0.00     0.053 A 
ATOM      5  C13 <0> d   1      -8.085   4.222  -0.110  0.00  0.00     0.103 A 
ATOM      6  C14 <0> d   1      -7.660   5.552  -0.187  0.00  0.00     0.104 A 
ATOM      7  C15 <0> d   1      -6.309   5.855  -0.210  0.00  0.00     0.070 A 
ATOM      8  C16 <0> d   1      -5.364   4.837  -0.153  0.00  0.00     0.048 A 
ATOM      9  N1  <0> d   1      -4.018   5.142  -0.175  0.00  0.00    -0.322 N 
ATOM     10  H1  <0> d   1      -3.693   6.191  -0.237  0.00  0.00     0.169 HD
ATOM     11  C17 <0> d   1      -3.087   4.172  -0.120  0.00  0.00     0.256 A 
ATOM     12  O3  <0> d   1      -1.904   4.462  -0.139  0.00  0.00    -0.267 OA
ATOM     13  O4  <0> d   1      -8.564   6.567  -0.239  0.00  0.00    -0.346 OA
ATOM     14  C18 <0> d   1      -9.906   6.216  -0.593  0.00  0.00     0.202 C 
ATOM     15  C19 <0> d   1     -10.313   4.984   0.225  0.00  0.00     0.202 C 
ATOM     16  O5  <0> d   1      -9.413   3.917  -0.092  0.00  0.00    -0.346 OA
ENDROOT
BRANCH   1  17
ATOM     17  C8  <0> d   1      -2.490   1.702   0.021  0.00  0.00     0.058 C 
ATOM     18  C7  <0> d   1      -2.507   0.696  -0.895  0.00  0.00     0.128 A 
ATOM     19  O2  <0> d   1      -3.444   0.505  -1.854  0.00  0.00    -0.306 OA
ATOM     20  C20 <0> d   1      -1.513  -0.376  -1.024  0.00  0.00     0.218 A 
ATOM     21  C4  <0> d   1      -3.180  -0.589  -2.602  0.00  0.00     0.093 A 
ATOM     22  C3  <0> d   1      -1.996  -1.194  -2.151  0.00  0.00     0.051 A 
ATOM     23  C5  <0> d   1      -3.860  -1.157  -3.672  0.00  0.00     0.078 A 
ATOM     24  C2  <0> d   1      -1.512  -2.348  -2.769  0.00  0.00     0.021 A 
ATOM     25  C1  <0> d   1      -2.193  -2.894  -3.821  0.00  0.00     0.041 A 
ATOM     26  C6  <0> d   1      -3.368  -2.303  -4.276  0.00  0.00     0.110 A 
ATOM     27  O1  <0> d   1      -4.037  -2.853  -5.321  0.00  0.00    -0.192 OA
ATOM     28  O6  <0> d   1      -0.514  -0.552  -0.348  0.00  0.00    -0.284 OA
ENDBRANCH   1  17
TORSDOF 1
