REMARK  3 active torsions:
REMARK  status: ('A' for Active; 'I' for Inactive)
REMARK    1  A    between atoms: C2_2  and  N1_3 
REMARK    2  A    between atoms: N2_6  and  C7_9 
REMARK    3  A    between atoms: C7_9  and  C8_10 
ROOT
ATOM      1  C8  <0> d   1       3.579   3.510  -0.742  0.00  0.00    -0.013 C 
ATOM      2  C9  <0> d   1       2.572   3.614   0.175  0.00  0.00     0.092 C 
ATOM      3  C10 <0> d   1       2.546   4.706   1.062  0.00  0.00     0.288 C 
ATOM      4  O1  <0> d   1       1.587   4.875   1.791  0.00  0.00    -0.260 OA
ATOM      5  O2  <0> d   1       3.587   5.552   1.117  0.00  0.00    -0.275 OA
ATOM      6  C11 <0> d   1       4.585   5.485   0.209  0.00  0.00     0.091 C 
ATOM      7  C12 <0> d   1       4.520   4.556  -0.845  0.00  0.00     0.017 C 
ATOM      8  C13 <0> d   1       5.489   4.689  -1.929  0.00  0.00    -0.012 C 
ATOM      9  C14 <0> d   1       5.367   4.067  -3.172  0.00  0.00     0.013 C 
ATOM     10  C15 <0> d   1       6.391   4.114  -4.075  0.00  0.00     0.001 C 
ATOM     11  C16 <0> d   1       7.583   4.763  -3.772  0.00  0.00     0.001 C 
ATOM     12  C17 <0> d   1       7.720   5.434  -2.594  0.00  0.00     0.012 C 
ATOM     13  C18 <0> d   1       6.644   5.484  -1.695  0.00  0.00    -0.025 C 
ATOM     14  C19 <0> d   1       6.675   6.354  -0.588  0.00  0.00     0.015 C 
ATOM     15  C20 <0> d   1       5.657   6.376   0.305  0.00  0.00     0.039 C 
ENDROOT
BRANCH   1  16
ATOM     16  C7  <0> d   1       3.672   2.236  -1.543  0.00  0.00     0.274 C 
BRANCH  16  17
ATOM     17  N2  <0> d   1       3.007   2.424  -2.840  0.00  0.00    -0.064 N 
ATOM     18  C4  <0> d   1       3.279   1.295  -3.740  0.00  0.00     0.265 C 
ATOM     19  C3  <0> d   1       2.637   1.565  -5.102  0.00  0.00     0.300 C 
ATOM     20  N1  <0> d   1       1.191   1.761  -4.929  0.00  0.00     0.091 N 
ATOM     21  C6  <0> d   1       0.919   2.891  -4.029  0.00  0.00     0.300 C 
ATOM     22  C5  <0> d   1       1.561   2.620  -2.667  0.00  0.00     0.265 C 
ATOM     23  H23 <0> d   1       3.420   3.333  -3.301  0.00  0.00     0.280 HD
BRANCH  20  24
ATOM     24  C2  <0> d   1       0.526   1.949  -6.225  0.00  0.00     0.268 C 
ATOM     25  C1  <0> d   1      -0.991   1.899  -6.032  0.00  0.00     0.037 C 
ENDBRANCH  20  24
ENDBRANCH  16  17
ENDBRANCH   1  16
TORSDOF 3
