REMARK  3 active torsions:
REMARK  status: ('A' for Active; 'I' for Inactive)
REMARK    1  A    between atoms: C2_2  and  N1_3 
REMARK    2  A    between atoms: N2_6  and  C7_9 
REMARK    3  A    between atoms: C7_9  and  C8_10 
ROOT
ATOM      1  C8  <0> d   1       0.240   1.483  -0.053  0.00  0.00    -0.011 A 
ATOM      2  C9  <0> d   1      -0.670   2.354   0.451  0.00  0.00     0.092 A 
ATOM      3  C10 <0> d   1      -0.423   3.743   0.387  0.00  0.00     0.288 A 
ATOM      4  O1  <0> d   1      -1.248   4.514   0.843  0.00  0.00    -0.260 OA
ATOM      5  O2  <0> d   1       0.699   4.234  -0.163  0.00  0.00    -0.275 OA
ATOM      6  C11 <0> d   1       1.644   3.422  -0.682  0.00  0.00     0.090 A 
ATOM      7  C12 <0> d   1       1.465   2.028  -0.647  0.00  0.00     0.006 A 
ATOM      8  C13 <0> d   1       2.440   1.185  -1.190  0.00  0.00     0.015 A 
ATOM      9  C14 <0> d   1       3.576   1.729  -1.746  0.00  0.00     0.007 A 
ATOM     10  C15 <0> d   1       3.753   3.104  -1.775  0.00  0.00    -0.059 A 
ATOM     11  C16 <0> d   1       2.798   3.948  -1.248  0.00  0.00     0.045 A 
ATOM     12  C17 <0> d   1       5.003   3.682  -2.387  0.00  0.00     0.048 C 
ENDROOT
BRANCH   1  13
ATOM     13  C7  <0> d   1       0.002  -0.004   0.002  0.00  0.00     0.312 C 
BRANCH  13  14
ATOM     14  N2  <0> d   1      -0.362  -0.491  -1.335  0.00  0.00     0.096 N 
ATOM     15  C4  <0> d   1      -0.238  -1.954  -1.415  0.00  0.00     0.303 C 
ATOM     16  C3  <0> d   1      -0.549  -2.412  -2.841  0.00  0.00     0.302 C 
ATOM     17  N1  <0> d   1      -1.905  -1.981  -3.207  0.00  0.00     0.091 N 
ATOM     18  C6  <0> d   1      -2.030  -0.519  -3.128  0.00  0.00     0.302 C 
ATOM     19  C5  <0> d   1      -1.719  -0.060  -1.701  0.00  0.00     0.303 C 
BRANCH  17  20
ATOM     20  C2  <0> d   1      -2.270  -2.468  -4.544  0.00  0.00     0.268 C 
ATOM     21  C1  <0> d   1      -3.760  -2.219  -4.789  0.00  0.00     0.037 C 
ENDBRANCH  17  20
ENDBRANCH  13  14
ENDBRANCH   1  13
TORSDOF 3
