REMARK  9 active torsions:
REMARK  status: ('A' for Active; 'I' for Inactive)
REMARK    1  A    between atoms: O1_2  and  C2_3 
REMARK    2  A    between atoms: C4_5  and  C10_13 
REMARK    3  A    between atoms: C6_7  and  O3_11 
REMARK    4  A    between atoms: C7_8  and  O2_9 
REMARK    5  A    between atoms: C17_21  and  C19_24 
REMARK    6  A    between atoms: C19_24  and  N1_25 
REMARK    7  A    between atoms: N2_28  and  C24_31 
REMARK    8  A    between atoms: C24_31  and  C25_32 
REMARK    9  A    between atoms: C25_32  and  O6_33 
ROOT
ATOM      1  C10 <0> d   1       2.392   0.347  -4.214  0.00  0.00     0.053 C 
ATOM      2  C11 <0> d   1       3.083  -0.254  -5.217  0.00  0.00     0.127 A 
ATOM      3  C12 <0> d   1       3.827   0.425  -6.287  0.00  0.00     0.218 A 
ATOM      4  O4  <0> d   1       3.955   1.625  -6.461  0.00  0.00    -0.284 OA
ATOM      5  C13 <0> d   1       4.385  -0.670  -7.102  0.00  0.00     0.051 A 
ATOM      6  C14 <0> d   1       5.178  -0.697  -8.249  0.00  0.00     0.021 A 
ATOM      7  C15 <0> d   1       5.547  -1.894  -8.793  0.00  0.00     0.041 A 
ATOM      8  C16 <0> d   1       5.134  -3.087  -8.206  0.00  0.00     0.118 A 
ATOM      9  C17 <0> d   1       4.345  -3.075  -7.067  0.00  0.00     0.039 A 
ATOM     10  C18 <0> d   1       3.962  -1.866  -6.500  0.00  0.00     0.101 A 
ATOM     11  O5  <0> d   1       3.215  -1.587  -5.409  0.00  0.00    -0.305 OA
ATOM     12  O7  <0> d   1       5.506  -4.272  -8.754  0.00  0.00    -0.191 OA
ENDROOT
BRANCH   1  13
ATOM     13  C4  <0> d   1       1.573  -0.459  -3.301  0.00  0.00    -0.028 A 
ATOM     14  C3  <0> d   1       0.972   0.137  -2.185  0.00  0.00     0.051 A 
ATOM     15  C2  <0> d   1       0.201  -0.625  -1.329  0.00  0.00     0.105 A 
ATOM     16  C7  <0> d   1       0.024  -1.986  -1.572  0.00  0.00     0.135 A 
ATOM     17  C6  <0> d   1       0.615  -2.581  -2.684  0.00  0.00     0.105 A 
ATOM     18  C5  <0> d   1       1.388  -1.826  -3.545  0.00  0.00     0.051 A 
BRANCH  15  19
ATOM     19  O1  <0> d   1      -0.383  -0.048  -0.245  0.00  0.00    -0.353 OA
ATOM     20  C1  <0> d   1      -0.160   1.351  -0.056  0.00  0.00     0.210 C 
ENDBRANCH  15  19
BRANCH  16  21
ATOM     21  O2  <0> d   1      -0.730  -2.733  -0.724  0.00  0.00    -0.351 OA
ATOM     22  C8  <0> d   1      -2.126  -2.832  -1.014  0.00  0.00     0.210 C 
ENDBRANCH  16  21
BRANCH  17  23
ATOM     23  O3  <0> d   1       0.435  -3.908  -2.920  0.00  0.00    -0.353 OA
ATOM     24  C9  <0> d   1       1.074  -4.454  -4.076  0.00  0.00     0.210 C 
ENDBRANCH  17  23
ENDBRANCH   1  13
BRANCH   9  25
ATOM     25  C19 <0> d   1       3.904  -4.374  -6.442  0.00  0.00     0.279 C 
BRANCH  25  26
ATOM     26  N1  <0> d   1       4.900  -4.803  -5.451  0.00  0.00    -0.064 N 
ATOM     27  C23 <0> d   1       4.414  -6.003  -4.757  0.00  0.00     0.265 C 
ATOM     28  C22 <0> d   1       5.442  -6.440  -3.712  0.00  0.00     0.300 C 
ATOM     29  N2  <0> d   1       6.722  -6.722  -4.376  0.00  0.00     0.093 N 
ATOM     30  C21 <0> d   1       7.209  -5.537  -5.095  0.00  0.00     0.300 C 
ATOM     31  C20 <0> d   1       6.167  -5.107  -6.130  0.00  0.00     0.265 C 
ATOM     32  H30 <0> d   1       5.047  -4.064  -4.780  0.00  0.00     0.280 HD
BRANCH  29  33
ATOM     33  C24 <0> d   1       7.722  -7.200  -3.411  0.00  0.00     0.298 C 
BRANCH  33  34
ATOM     34  C25 <0> d   1       7.293  -8.564  -2.866  0.00  0.00     0.194 C 
BRANCH  34  35
ATOM     35  O6  <0> d   1       7.300  -9.524  -3.924  0.00  0.00    -0.399 OA
ATOM     36  H29 <0> d   1       7.038 -10.413  -3.650  0.00  0.00     0.209 HD
ENDBRANCH  34  35
ENDBRANCH  33  34
ENDBRANCH  29  33
ENDBRANCH  25  26
ENDBRANCH   9  25
TORSDOF 9
