REMARK  9 active torsions:
REMARK  status: ('A' for Active; 'I' for Inactive)
REMARK    1  A    between atoms: C3_3  and  C19_26 
REMARK    2  A    between atoms: C4_4  and  C5_8 
REMARK    3  A    between atoms: C8_11  and  O2_15 
REMARK    4  A    between atoms: C10_13  and  O1_14 
REMARK    5  A    between atoms: O2_15  and  C11_16 
REMARK    6  A    between atoms: C11_16  and  C12_17 
REMARK    7  A    between atoms: C12_17  and  N3_18 
REMARK    8  A    between atoms: C22_29  and  O5_34 
REMARK    9  A    between atoms: C23_30  and  O4_32 
ROOT
ATOM      1  C5  <0> d   1       0.932  -4.137  -1.717  0.00  0.00     0.029 A 
ATOM      2  C6  <0> d   1       0.827  -3.611  -3.003  0.00  0.00     0.019 A 
ATOM      3  C7  <0> d   1       0.738  -4.457  -4.088  0.00  0.00     0.038 A 
ATOM      4  C8  <0> d   1       0.752  -5.834  -3.903  0.00  0.00     0.071 A 
ATOM      5  C9  <0> d   1       0.856  -6.365  -2.626  0.00  0.00     0.074 A 
ATOM      6  C10 <0> d   1       0.952  -5.523  -1.532  0.00  0.00     0.081 A 
ENDROOT
BRANCH   1   7
ATOM      7  C4  <0> d   1       1.028  -3.229  -0.548  0.00  0.00     0.103 A 
ATOM      8  C3  <0> d   1       0.216  -2.094  -0.303  0.00  0.00     0.029 A 
ATOM      9  C2  <0> d   1       0.628  -1.540   0.871  0.00  0.00     0.037 A 
ATOM     10  C1  <0> d   1       0.048  -0.313   1.526  0.00  0.00     0.070 C 
ATOM     11  N2  <0> d   1       1.652  -2.283   1.341  0.00  0.00    -0.281 N 
ATOM     12  N1  <0> d   1       1.883  -3.334   0.446  0.00  0.00    -0.173 NA
ATOM     13  H1  <0> d   1       2.143  -2.119   2.162  0.00  0.00     0.189 HD
BRANCH   8  14
ATOM     14  C19 <0> d   1      -0.884  -1.599  -1.168  0.00  0.00    -0.019 A 
ATOM     15  C24 <0> d   1      -0.757  -0.379  -1.829  0.00  0.00     0.052 A 
ATOM     16  C23 <0> d   1      -1.782   0.077  -2.639  0.00  0.00     0.102 A 
ATOM     17  C22 <0> d   1      -2.942  -0.679  -2.783  0.00  0.00     0.101 A 
ATOM     18  C21 <0> d   1      -3.070  -1.890  -2.121  0.00  0.00     0.040 A 
ATOM     19  C20 <0> d   1      -2.048  -2.351  -1.316  0.00  0.00     0.015 A 
BRANCH  16  20
ATOM     20  O4  <0> d   1      -1.659   1.265  -3.289  0.00  0.00    -0.353 OA
ATOM     21  C25 <0> d   1      -0.442   1.987  -3.095  0.00  0.00     0.210 C 
ENDBRANCH  16  20
BRANCH  17  22
ATOM     22  O5  <0> d   1      -3.952  -0.229  -3.576  0.00  0.00    -0.353 OA
ATOM     23  C26 <0> d   1      -5.113  -1.055  -3.679  0.00  0.00     0.210 C 
ENDBRANCH  17  22
ENDBRANCH   8  14
ENDBRANCH   1   7
BRANCH   6  24
ATOM     24  O1  <0> d   1       1.060  -6.042  -0.281  0.00  0.00    -0.360 OA
ATOM     25  H10 <0> d   1       0.211  -6.194   0.156  0.00  0.00     0.217 HD
ENDBRANCH   6  24
BRANCH   4  26
ATOM     26  O2  <0> d   1       0.663  -6.662  -4.976  0.00  0.00    -0.349 OA
BRANCH  26  27
ATOM     27  C11 <0> d   1       0.558  -6.049  -6.263  0.00  0.00     0.206 C 
BRANCH  27  28
ATOM     28  C12 <0> d   1       0.469  -7.133  -7.339  0.00  0.00     0.299 C 
BRANCH  28  29
ATOM     29  N3  <0> d   1      -0.773  -7.898  -7.162  0.00  0.00     0.095 N 
ATOM     30  C16 <0> d   1      -1.935  -7.133  -7.637  0.00  0.00     0.303 C 
ATOM     31  C15 <0> d   1      -3.210  -7.940  -7.379  0.00  0.00     0.146 C 
ATOM     32  O3  <0> d   1      -3.100  -9.213  -8.022  0.00  0.00    -0.378 OA
ATOM     33  C17 <0> d   1      -3.393  -8.142  -5.874  0.00  0.00     0.041 C 
ATOM     34  C14 <0> d   1      -1.979  -9.985  -7.583  0.00  0.00     0.146 C 
ATOM     35  C13 <0> d   1      -0.692  -9.198  -7.843  0.00  0.00     0.303 C 
ATOM     36  C18 <0> d   1      -1.935 -11.306  -8.353  0.00  0.00     0.041 C 
ENDBRANCH  28  29
ENDBRANCH  27  28
ENDBRANCH  26  27
ENDBRANCH   4  26
TORSDOF 9
