REMARK  10 active torsions:
REMARK  status: ('A' for Active; 'I' for Inactive)
REMARK    1  A    between atoms: C2_2  and  C3_3 
REMARK    2  A    between atoms: C3_3  and  C4_4 
REMARK    3  A    between atoms: C4_4  and  N1_5 
REMARK    4  A    between atoms: N1_5  and  C5_6 
REMARK    5  A    between atoms: N1_5  and  C9_10 
REMARK    6  A    between atoms: C5_6  and  C6_7 
REMARK    7  A    between atoms: C6_7  and  C7_8 
REMARK    8  A    between atoms: C9_10  and  C10_11 
REMARK    9  A    between atoms: C11_12  and  O4_31 
REMARK   10  A    between atoms: C17_19  and  C18_20 
ROOT
ATOM      1  C10 <0> d   1       1.538   3.078  -0.003  0.00  0.00     0.036 A 
ATOM      2  C11 <0> d   1       2.911   3.256  -0.069  0.00  0.00     0.076 A 
ATOM      3  C12 <0> d   1       3.768   2.159  -0.062  0.00  0.00     0.038 A 
ATOM      4  C13 <0> d   1       3.262   0.892   0.011  0.00  0.00     0.021 A 
ATOM      5  C14 <0> d   1       1.882   0.698   0.079  0.00  0.00     0.051 A 
ATOM      6  C15 <0> d   1       1.007   1.796   0.072  0.00  0.00     0.101 A 
ATOM      7  O1  <0> d   1      -0.270   1.361   0.145  0.00  0.00    -0.305 OA
ATOM      8  C16 <0> d   1      -0.338   0.010   0.202  0.00  0.00     0.129 A 
ATOM      9  C17 <0> d   1      -1.476  -0.735   0.281  0.00  0.00     0.078 C 
ATOM     10  C26 <0> d   1       1.036  -0.506   0.164  0.00  0.00     0.218 A 
ATOM     11  O3  <0> d   1       1.396  -1.671   0.195  0.00  0.00    -0.284 OA
ENDROOT
BRANCH   1  12
ATOM     12  C9  <0> d   1       0.622   4.274  -0.011  0.00  0.00     0.279 C 
BRANCH  12  13
ATOM     13  N1  <0> d   1       0.231   4.601   1.367  0.00  0.00    -0.067 N 
ATOM     14  H29 <0> d   1       0.009   3.659   1.888  0.00  0.00     0.280 HD
BRANCH  13  15
ATOM     15  C4  <0> d   1       1.330   5.264   2.082  0.00  0.00     0.235 C 
BRANCH  15  16
ATOM     16  C3  <0> d   1       1.622   6.616   1.428  0.00  0.00     0.027 C 
BRANCH  16  17
ATOM     17  C2  <0> d   1       2.838   7.256   2.101  0.00  0.00    -0.003 C 
ATOM     18  C1  <0> d   1       3.130   8.608   1.446  0.00  0.00     0.005 C 
ENDBRANCH  16  17
ENDBRANCH  15  16
ENDBRANCH  13  15
BRANCH  13  19
ATOM     19  C5  <0> d   1      -0.984   5.426   1.387  0.00  0.00     0.235 C 
BRANCH  19  20
ATOM     20  C6  <0> d   1      -1.568   5.438   2.801  0.00  0.00     0.027 C 
BRANCH  20  21
ATOM     21  C7  <0> d   1      -2.902   6.188   2.796  0.00  0.00    -0.003 C 
ATOM     22  C8  <0> d   1      -3.486   6.199   4.210  0.00  0.00     0.005 C 
ENDBRANCH  20  21
ENDBRANCH  19  20
ENDBRANCH  13  19
ENDBRANCH  12  13
ENDBRANCH   1  12
BRANCH   2  23
ATOM     23  O4  <0> d   1       3.424   4.510  -0.143  0.00  0.00    -0.360 OA
ATOM     24  H30 <0> d   1       4.513   4.657  -0.196  0.00  0.00     0.217 HD
ENDBRANCH   2  23
BRANCH   9  25
ATOM     25  C18 <0> d   1      -2.739  -0.097   0.310  0.00  0.00     0.079 A 
ATOM     26  O2  <0> d   1      -2.941   1.238   0.265  0.00  0.00    -0.310 OA
ATOM     27  C25 <0> d   1      -4.263   1.503   0.311  0.00  0.00     0.086 A 
ATOM     28  C20 <0> d   1      -4.941   0.272   0.391  0.00  0.00     0.000 A 
ATOM     29  C24 <0> d   1      -4.995   2.683   0.296  0.00  0.00     0.038 A 
ATOM     30  C19 <0> d   1      -3.942  -0.734   0.382  0.00  0.00     0.051 A 
ATOM     31  C21 <0> d   1      -6.338   0.249   0.453  0.00  0.00     0.014 A 
ATOM     32  C22 <0> d   1      -7.038   1.422   0.436  0.00  0.00     0.001 A 
ATOM     33  C23 <0> d   1      -6.372   2.637   0.358  0.00  0.00     0.003 A 
ENDBRANCH   9  25
TORSDOF 10
