REMARK  4 active torsions:
REMARK  status: ('A' for Active; 'I' for Inactive)
REMARK    1  A    between atoms: C6_6  and  C7_7 
REMARK    2  A    between atoms: C7_7  and  N1_8 
REMARK    3  A    between atoms: N2_11  and  C12_14 
REMARK    4  A    between atoms: C12_14  and  C13_15 
ROOT
ATOM      1  N1  <0> d   1       5.988  -0.944   0.995  0.00  0.00     0.096 N 
ATOM      2  C8  <0> d   1       5.681  -2.304   0.529  0.00  0.00     0.303 C 
ATOM      3  C9  <0> d   1       6.701  -2.717  -0.535  0.00  0.00     0.303 C 
ATOM      4  N2  <0> d   1       8.054  -2.651   0.034  0.00  0.00     0.096 N 
ATOM      5  C10 <0> d   1       8.360  -1.291   0.500  0.00  0.00     0.303 C 
ATOM      6  C11 <0> d   1       7.341  -0.878   1.565  0.00  0.00     0.303 C 
ENDROOT
BRANCH   4   7
ATOM      7  C12 <0> d   1       9.056  -3.113  -0.935  0.00  0.00     0.312 C 
BRANCH   7   8
ATOM      8  C13 <0> d   1       8.656  -4.467  -1.464  0.00  0.00    -0.011 A 
ATOM      9  C17 <0> d   1       8.800  -5.670  -0.639  0.00  0.00     0.007 A 
ATOM     10  C16 <0> d   1       8.410  -6.912  -1.171  0.00  0.00     0.090 A 
ATOM     11  C18 <0> d   1       9.311  -5.603   0.657  0.00  0.00     0.022 A 
ATOM     12  O2  <0> d   1       7.923  -6.981  -2.428  0.00  0.00    -0.275 OA
ATOM     13  C21 <0> d   1       8.538  -8.051  -0.392  0.00  0.00     0.046 A 
ATOM     14  C15 <0> d   1       7.793  -5.885  -3.191  0.00  0.00     0.288 A 
ATOM     15  C14 <0> d   1       8.159  -4.606  -2.719  0.00  0.00     0.092 A 
ATOM     16  O1  <0> d   1       7.347  -5.996  -4.319  0.00  0.00    -0.260 OA
ATOM     17  C20 <0> d   1       9.052  -7.973   0.893  0.00  0.00    -0.049 A 
ATOM     18  C19 <0> d   1       9.435  -6.752   1.417  0.00  0.00    -0.051 A 
ATOM     19  C22 <0> d   1       9.156  -9.257   1.677  0.00  0.00     0.039 C 
ATOM     20  C25 <0> d   1       9.998  -6.608   2.808  0.00  0.00     0.039 C 
ATOM     21  C24 <0> d   1       9.675  -7.841   3.649  0.00  0.00     0.005 C 
ATOM     22  C23 <0> d   1      10.102  -9.087   2.864  0.00  0.00     0.005 C 
ENDBRANCH   7   8
ENDBRANCH   4   7
BRANCH   1  23
ATOM     23  C7  <0> d   1       4.985  -0.481   1.964  0.00  0.00     0.311 C 
BRANCH  23  24
ATOM     24  C6  <0> d   1       3.654  -0.329   1.275  0.00  0.00    -0.027 A 
ATOM     25  C1  <0> d   1       2.777  -1.396   1.226  0.00  0.00     0.012 A 
ATOM     26  C2  <0> d   1       1.553  -1.262   0.596  0.00  0.00     0.040 A 
ATOM     27  C3  <0> d   1       1.204  -0.055   0.012  0.00  0.00     0.105 A 
ATOM     28  O4  <0> d   1       0.081   0.334  -0.659  0.00  0.00    -0.323 OA
ATOM     29  C4  <0> d   1       2.088   1.020   0.061  0.00  0.00     0.105 A 
ATOM     30  C26 <0> d   1       0.114   1.773  -0.662  0.00  0.00     0.352 C 
ATOM     31  O3  <0> d   1       1.518   2.083  -0.578  0.00  0.00    -0.323 OA
ATOM     32  C5  <0> d   1       3.311   0.878   0.695  0.00  0.00     0.048 A 
ENDBRANCH  23  24
ENDBRANCH   1  23
TORSDOF 4
