REMARK  7 active torsions:
REMARK  status: ('A' for Active; 'I' for Inactive)
REMARK    1  A    between atoms: C3_3  and  C19_26 
REMARK    2  A    between atoms: C4_4  and  C5_8 
REMARK    3  A    between atoms: C8_11  and  O2_15 
REMARK    4  A    between atoms: C10_13  and  O1_14 
REMARK    5  A    between atoms: O2_15  and  C11_16 
REMARK    6  A    between atoms: C11_16  and  C12_17 
REMARK    7  A    between atoms: C12_17  and  N3_18 
ROOT
ATOM      1  C5  <0> d   1       0.248  -3.213  -1.685  0.00  0.00     0.029 A 
ATOM      2  C6  <0> d   1       0.353  -2.964  -3.052  0.00  0.00     0.019 A 
ATOM      3  C7  <0> d   1       0.470  -4.016  -3.937  0.00  0.00     0.038 A 
ATOM      4  C8  <0> d   1       0.485  -5.324  -3.469  0.00  0.00     0.071 A 
ATOM      5  C9  <0> d   1       0.382  -5.580  -2.110  0.00  0.00     0.074 A 
ATOM      6  C10 <0> d   1       0.270  -4.530  -1.214  0.00  0.00     0.081 A 
ENDROOT
BRANCH   1   7
ATOM      7  C4  <0> d   1       0.122  -2.085  -0.732  0.00  0.00     0.103 A 
ATOM      8  C3  <0> d   1      -0.761  -0.982  -0.855  0.00  0.00     0.029 A 
ATOM      9  C2  <0> d   1      -0.564  -0.177   0.227  0.00  0.00     0.037 A 
ATOM     10  C1  <0> d   1      -1.286   1.114   0.515  0.00  0.00     0.070 C 
ATOM     11  N2  <0> d   1       0.396  -0.737   0.990  0.00  0.00    -0.281 N 
ATOM     12  N1  <0> d   1       0.808  -1.928   0.380  0.00  0.00    -0.173 NA
ATOM     13  H1  <0> d   1       0.742  -0.378   1.822  0.00  0.00     0.189 HD
BRANCH   8  14
ATOM     14  C19 <0> d   1      -1.724  -0.749  -1.959  0.00  0.00    -0.021 A 
ATOM     15  C24 <0> d   1      -1.545   0.326  -2.828  0.00  0.00     0.014 A 
ATOM     16  C23 <0> d   1      -2.441   0.536  -3.856  0.00  0.00     0.020 A 
ATOM     17  C22 <0> d   1      -3.522  -0.312  -4.019  0.00  0.00     0.011 A 
ATOM     18  C21 <0> d   1      -3.708  -1.378  -3.156  0.00  0.00     0.020 A 
ATOM     19 Br1  <0> d   1      -4.750  -0.014  -5.426  0.00  0.00    -0.051 Br
ATOM     20  C20 <0> d   1      -2.815  -1.600  -2.128  0.00  0.00     0.014 A 
ENDBRANCH   8  14
ENDBRANCH   1   7
BRANCH   6  21
ATOM     21  O1  <0> d   1       0.174  -4.779   0.118  0.00  0.00    -0.360 OA
ATOM     22  H10 <0> d   1      -0.733  -4.890   0.433  0.00  0.00     0.217 HD
ENDBRANCH   6  21
BRANCH   4  23
ATOM     23  O2  <0> d   1       0.601  -6.355  -4.346  0.00  0.00    -0.349 OA
BRANCH  23  24
ATOM     24  C11 <0> d   1       0.703  -6.021  -5.731  0.00  0.00     0.206 C 
BRANCH  24  25
ATOM     25  C12 <0> d   1       0.825  -7.303  -6.557  0.00  0.00     0.299 C 
BRANCH  25  26
ATOM     26  N3  <0> d   1      -0.413  -8.083  -6.436  0.00  0.00     0.095 N 
ATOM     27  C16 <0> d   1      -0.250  -9.424  -7.017  0.00  0.00     0.303 C 
ATOM     28  C15 <0> d   1      -1.542 -10.222  -6.816  0.00  0.00     0.146 C 
ATOM     29  O3  <0> d   1      -2.634  -9.507  -7.401  0.00  0.00    -0.378 OA
ATOM     30  C17 <0> d   1      -1.407 -11.590  -7.488  0.00  0.00     0.041 C 
ATOM     31  C14 <0> d   1      -2.821  -8.198  -6.858  0.00  0.00     0.146 C 
ATOM     32  C13 <0> d   1      -1.543  -7.379  -7.059  0.00  0.00     0.303 C 
ATOM     33  C18 <0> d   1      -3.986  -7.510  -7.573  0.00  0.00     0.041 C 
ENDBRANCH  25  26
ENDBRANCH  24  25
ENDBRANCH  23  24
ENDBRANCH   4  23
TORSDOF 7
