REMARK  4 active torsions:
REMARK  status: ('A' for Active; 'I' for Inactive)
REMARK    1  A    between atoms: C2_2  and  N1_3 
REMARK    2  A    between atoms: N2_6  and  C7_9 
REMARK    3  A    between atoms: C7_9  and  C8_10 
REMARK    4  A    between atoms: C15_18  and  C16_19 
ROOT
ATOM      1  C8  <0> d   1       2.667  -4.128  -3.091  0.00  0.00     0.039 A 
ATOM      2  C9  <0> d   1       3.591  -4.914  -2.422  0.00  0.00     0.118 A 
ATOM      3  C10 <0> d   1       3.621  -6.292  -2.617  0.00  0.00     0.041 A 
ATOM      4  C11 <0> d   1       2.736  -6.884  -3.473  0.00  0.00     0.021 A 
ATOM      5  C12 <0> d   1       1.800  -6.104  -4.153  0.00  0.00     0.051 A 
ATOM      6  C13 <0> d   1       1.756  -4.714  -3.961  0.00  0.00     0.101 A 
ATOM      7  O1  <0> d   1       0.772  -4.180  -4.716  0.00  0.00    -0.305 OA
ATOM      8  C14 <0> d   1       0.114  -5.126  -5.428  0.00  0.00     0.128 A 
ATOM      9  C15 <0> d   1      -0.923  -4.914  -6.278  0.00  0.00     0.055 C 
ATOM     10  C24 <0> d   1       0.734  -6.423  -5.121  0.00  0.00     0.218 A 
ATOM     11  O4  <0> d   1       0.429  -7.518  -5.560  0.00  0.00    -0.284 OA
ATOM     12  O5  <0> d   1       4.475  -4.336  -1.569  0.00  0.00    -0.191 OA
ENDROOT
BRANCH   9  13
ATOM     13  C16 <0> d   1      -1.495  -3.570  -6.416  0.00  0.00     0.002 A 
ATOM     14  C21 <0> d   1      -2.764  -3.398  -6.996  0.00  0.00     0.090 A 
ATOM     15  C20 <0> d   1      -3.300  -2.126  -7.111  0.00  0.00     0.002 A 
ATOM     16  O2  <0> d   1      -3.452  -4.481  -7.438  0.00  0.00    -0.325 OA
ATOM     17  C19 <0> d   1      -2.580  -1.030  -6.672  0.00  0.00     0.036 A 
ATOM     18  C23 <0> d   1      -4.666  -1.927  -7.718  0.00  0.00     0.212 C 
ATOM     19  C18 <0> d   1      -1.325  -1.192  -6.107  0.00  0.00     0.035 A 
ATOM     20  C17 <0> d   1      -0.778  -2.450  -5.976  0.00  0.00     0.038 A 
ATOM     21 Cl1  <0> d   1      -0.436   0.197  -5.564  0.00  0.00    -0.084 Cl
ATOM     22  O3  <0> d   1      -5.036  -3.108  -8.442  0.00  0.00    -0.362 OA
ATOM     23  C22 <0> d   1      -4.851  -4.305  -7.678  0.00  0.00     0.345 C 
ENDBRANCH   9  13
BRANCH   1  24
ATOM     24  C7  <0> d   1       2.646  -2.637  -2.870  0.00  0.00     0.279 C 
BRANCH  24  25
ATOM     25  N2  <0> d   1       1.748  -2.320  -1.752  0.00  0.00    -0.064 N 
ATOM     26  C4  <0> d   1       1.819  -0.882  -1.460  0.00  0.00     0.265 C 
ATOM     27  C3  <0> d   1       0.897  -0.555  -0.283  0.00  0.00     0.300 C 
ATOM     28  N1  <0> d   1      -0.481  -0.935  -0.623  0.00  0.00     0.091 N 
ATOM     29  C6  <0> d   1      -0.563  -2.368  -0.943  0.00  0.00     0.300 C 
ATOM     30  C5  <0> d   1       0.370  -2.680  -2.114  0.00  0.00     0.265 C 
ATOM     31  H25 <0> d   1       2.029  -2.843  -0.937  0.00  0.00     0.280 HD
BRANCH  28  32
ATOM     32  C2  <0> d   1      -1.407  -0.584   0.461  0.00  0.00     0.268 C 
ATOM     33  C1  <0> d   1      -1.479   0.938   0.598  0.00  0.00     0.037 C 
ENDBRANCH  28  32
ENDBRANCH  24  25
ENDBRANCH   1  24
TORSDOF 4
