REMARK  8 active torsions:
REMARK  status: ('A' for Active; 'I' for Inactive)
REMARK    1  A    between atoms: O1_2  and  C2_3 
REMARK    2  A    between atoms: C5_6  and  C8_9 
REMARK    3  A    between atoms: C15_18  and  O5_30 
REMARK    4  A    between atoms: C16_19  and  C17_20 
REMARK    5  A    between atoms: C17_20  and  N1_21 
REMARK    6  A    between atoms: N2_24  and  C22_27 
REMARK    7  A    between atoms: C22_27  and  C23_28 
REMARK    8  A    between atoms: C23_28  and  O4_29 
ROOT
ATOM      1  C8  <0> d   1       1.369   5.227   4.960  0.00  0.00     0.048 A 
ATOM      2  C9  <0> d   1       1.841   4.670   3.815  0.00  0.00     0.159 A 
ATOM      3  O2  <0> d   1       1.404   3.495   3.354  0.00  0.00    -0.320 OA
ATOM      4  C10 <0> d   1       0.463   2.759   3.978  0.00  0.00     0.100 A 
ATOM      5  C11 <0> d   1      -0.118   3.217   5.174  0.00  0.00     0.050 A 
ATOM      6  C12 <0> d   1       0.328   4.512   5.719  0.00  0.00     0.197 A 
ATOM      7  O3  <0> d   1      -0.132   4.963   6.753  0.00  0.00    -0.286 OA
ATOM      8  C13 <0> d   1      -1.089   2.454   5.825  0.00  0.00     0.021 A 
ATOM      9  C14 <0> d   1      -1.479   1.258   5.293  0.00  0.00     0.038 A 
ATOM     10  C15 <0> d   1      -0.914   0.798   4.106  0.00  0.00     0.076 A 
ATOM     11  C16 <0> d   1       0.050   1.544   3.449  0.00  0.00     0.038 A 
ENDROOT
BRANCH  11  12
ATOM     12  C17 <0> d   1       0.655   1.035   2.166  0.00  0.00     0.317 C 
BRANCH  12  13
ATOM     13  N1  <0> d   1      -0.139   1.513   1.026  0.00  0.00     0.096 N 
ATOM     14  C21 <0> d   1      -0.443   2.945   1.160  0.00  0.00     0.303 C 
ATOM     15  C20 <0> d   1      -1.336   3.385  -0.002  0.00  0.00     0.302 C 
ATOM     16  N2  <0> d   1      -0.651   3.112  -1.273  0.00  0.00     0.093 N 
ATOM     17  C19 <0> d   1      -0.347   1.681  -1.407  0.00  0.00     0.302 C 
ATOM     18  C18 <0> d   1       0.545   1.240  -0.245  0.00  0.00     0.303 C 
BRANCH  16  19
ATOM     19  C22 <0> d   1      -1.445   3.591  -2.413  0.00  0.00     0.298 C 
BRANCH  19  20
ATOM     20  C23 <0> d   1      -1.820   5.058  -2.193  0.00  0.00     0.194 C 
BRANCH  20  21
ATOM     21  O4  <0> d   1      -0.632   5.850  -2.138  0.00  0.00    -0.399 OA
ATOM     22  H25 <0> d   1      -0.702   6.937  -1.984  0.00  0.00     0.209 HD
ENDBRANCH  20  21
ENDBRANCH  19  20
ENDBRANCH  16  19
ENDBRANCH  12  13
ENDBRANCH  11  12
BRANCH  10  23
ATOM     23  O5  <0> d   1      -1.312  -0.392   3.588  0.00  0.00    -0.360 OA
ATOM     24  H26 <0> d   1      -0.868  -0.760   2.651  0.00  0.00     0.217 HD
ENDBRANCH  10  23
BRANCH   1  25
ATOM     25  C5  <0> d   1       1.884   6.535   5.433  0.00  0.00    -0.020 A 
ATOM     26  C4  <0> d   1       3.258   6.753   5.524  0.00  0.00     0.015 A 
ATOM     27  C3  <0> d   1       3.734   7.971   5.963  0.00  0.00     0.037 A 
ATOM     28  C2  <0> d   1       2.847   8.979   6.315  0.00  0.00     0.068 A 
ATOM     29  C7  <0> d   1       1.478   8.765   6.226  0.00  0.00     0.037 A 
ATOM     30  C6  <0> d   1       0.996   7.551   5.782  0.00  0.00     0.015 A 
BRANCH  28  31
ATOM     31  O1  <0> d   1       3.319  10.177   6.748  0.00  0.00    -0.356 OA
ATOM     32  C1  <0> d   1       2.350  11.169   7.094  0.00  0.00     0.210 C 
ENDBRANCH  28  31
ENDBRANCH   1  25
TORSDOF 8
