REMARK  5 active torsions:
REMARK  status: ('A' for Active; 'I' for Inactive)
REMARK    1  A    between atoms: C4_4  and  C7_7 
REMARK    2  A    between atoms: C11_11  and  O2_29 
REMARK    3  A    between atoms: C12_12  and  C14_16 
REMARK    4  A    between atoms: C14_16  and  N2_17 
REMARK    5  A    between atoms: N3_20  and  C19_23 
ROOT
ATOM      1  C7  <0> d   1       4.495  -0.320   0.416  0.00  0.00     0.107 A 
ATOM      2  C8  <0> d   1       4.586  -1.683   0.964  0.00  0.00     0.033 A 
ATOM      3  C9  <0> d   1       3.707  -2.490   1.688  0.00  0.00     0.020 A 
ATOM      4  C10 <0> d   1       4.090  -3.745   2.066  0.00  0.00     0.038 A 
ATOM      5  C11 <0> d   1       5.354  -4.227   1.733  0.00  0.00     0.076 A 
ATOM      6  C12 <0> d   1       6.237  -3.440   1.016  0.00  0.00     0.038 A 
ATOM      7  C13 <0> d   1       5.862  -2.162   0.626  0.00  0.00     0.124 A 
ATOM      8  O1  <0> d   1       6.487  -1.185  -0.062  0.00  0.00    -0.211 OA
ATOM      9  N1  <0> d   1       5.628  -0.069  -0.183  0.00  0.00    -0.126 NA
ENDROOT
BRANCH   6  10
ATOM     10  C14 <0> d   1       7.603  -3.969   0.660  0.00  0.00     0.279 C 
BRANCH  10  11
ATOM     11  N2  <0> d   1       7.540  -4.651  -0.639  0.00  0.00    -0.064 N 
ATOM     12  C18 <0> d   1       8.841  -5.268  -0.929  0.00  0.00     0.255 C 
ATOM     13  C17 <0> d   1       8.744  -6.075  -2.228  0.00  0.00     0.152 C 
ATOM     14  N3  <0> d   1       8.242  -5.190  -3.291  0.00  0.00    -0.363 N 
ATOM     15  C16 <0> d   1       7.027  -4.405  -3.022  0.00  0.00     0.152 C 
ATOM     16  C15 <0> d   1       7.205  -3.677  -1.685  0.00  0.00     0.255 C 
ATOM     17  H23 <0> d   1       6.829  -5.366  -0.609  0.00  0.00     0.280 HD
BRANCH  14  18
ATOM     18  C19 <0> d   1       8.896  -5.098  -4.513  0.00  0.00     0.125 A 
ATOM     19  N4  <0> d   1      10.094  -5.643  -4.659  0.00  0.00    -0.244 NA
ATOM     20  C23 <0> d   1      10.747  -5.584  -5.804  0.00  0.00     0.119 A 
ATOM     21  C22 <0> d   1      10.204  -4.936  -6.895  0.00  0.00     0.019 A 
ATOM     22  C21 <0> d   1       8.952  -4.346  -6.783  0.00  0.00     0.005 A 
ATOM     23  C20 <0> d   1       8.289  -4.430  -5.572  0.00  0.00     0.050 A 
ENDBRANCH  14  18
ENDBRANCH  10  11
ENDBRANCH   6  10
BRANCH   5  24
ATOM     24  O2  <0> d   1       5.721  -5.477   2.116  0.00  0.00    -0.360 OA
ATOM     25  H22 <0> d   1       5.505  -6.165   1.472  0.00  0.00     0.217 HD
ENDBRANCH   5  24
BRANCH   1  26
ATOM     26  C4  <0> d   1       3.332   0.593   0.518  0.00  0.00    -0.004 A 
ATOM     27  C3  <0> d   1       3.530   1.967   0.644  0.00  0.00     0.014 A 
ATOM     28  C2  <0> d   1       2.444   2.813   0.739  0.00  0.00     0.001 A 
ATOM     29  C1  <0> d   1       1.160   2.300   0.709  0.00  0.00     0.000 A 
ATOM     30  C6  <0> d   1       0.957   0.937   0.584  0.00  0.00     0.001 A 
ATOM     31  C5  <0> d   1       2.035   0.082   0.489  0.00  0.00     0.014 A 
ENDBRANCH   1  26
TORSDOF 5
