REMARK  6 active torsions:
REMARK  status: ('A' for Active; 'I' for Inactive)
REMARK    1  A    between atoms: C4_4  and  C7_7 
REMARK    2  A    between atoms: C7_7  and  C8_8 
REMARK    3  A    between atoms: C7_7  and  N1_14 
REMARK    4  A    between atoms: N2_17  and  C18_20 
REMARK    5  A    between atoms: C18_20  and  C19_21 
REMARK    6  A    between atoms: C19_21  and  C21_24 
ROOT
ATOM      1  C19 <0> d   1      -0.933   3.259   0.035  0.00  0.00     0.095 C 
ATOM      2  C20 <0> d   1      -2.004   3.886  -0.679  0.00  0.00     0.103 C 
ATOM      3  N3  <0> d   1      -2.853   4.384  -1.245  0.00  0.00    -0.191 NA
ENDROOT
BRANCH   1   4
ATOM      4  C18 <0> d   1      -0.976   1.919   0.291  0.00  0.00     0.111 C 
BRANCH   4   5
ATOM      5  N2  <0> d   1      -2.174   1.270   0.322  0.00  0.00    -0.385 N 
ATOM      6  C15 <0> d   1      -3.439   2.016   0.258  0.00  0.00     0.150 C 
ATOM      7  C14 <0> d   1      -4.335   1.558   1.414  0.00  0.00     0.256 C 
ATOM      8  N1  <0> d   1      -4.473   0.096   1.372  0.00  0.00    -0.056 N 
ATOM      9  C17 <0> d   1      -3.178  -0.568   1.571  0.00  0.00     0.256 C 
ATOM     10  H25 <0> d   1      -4.838  -0.177   0.370  0.00  0.00     0.281 HD
ATOM     11  C16 <0> d   1      -2.235  -0.197   0.415  0.00  0.00     0.150 C 
BRANCH   8  12
ATOM     12  C7  <0> d   1      -5.459  -0.368   2.357  0.00  0.00     0.254 C 
BRANCH  12  13
ATOM     13  C4  <0> d   1      -6.813   0.201   2.018  0.00  0.00    -0.023 A 
ATOM     14  C3  <0> d   1      -7.680   0.570   3.029  0.00  0.00     0.009 A 
ATOM     15  C2  <0> d   1      -8.922   1.092   2.719  0.00  0.00     0.001 A 
ATOM     16  C1  <0> d   1      -9.297   1.245   1.397  0.00  0.00     0.000 A 
ATOM     17  C6  <0> d   1      -8.429   0.876   0.386  0.00  0.00     0.001 A 
ATOM     18  C5  <0> d   1      -7.186   0.359   0.696  0.00  0.00     0.009 A 
ENDBRANCH  12  13
BRANCH  12  19
ATOM     19  C8  <0> d   1      -5.526  -1.873   2.330  0.00  0.00    -0.023 A 
ATOM     20  C13 <0> d   1      -5.702  -2.578   3.506  0.00  0.00     0.009 A 
ATOM     21  C12 <0> d   1      -5.763  -3.959   3.481  0.00  0.00     0.001 A 
ATOM     22  C11 <0> d   1      -5.649  -4.635   2.281  0.00  0.00     0.000 A 
ATOM     23  C10 <0> d   1      -5.474  -3.930   1.105  0.00  0.00     0.001 A 
ATOM     24  C9  <0> d   1      -5.417  -2.549   1.129  0.00  0.00     0.009 A 
ENDBRANCH  12  19
ENDBRANCH   8  12
ENDBRANCH   4   5
ENDBRANCH   1   4
BRANCH   1  25
ATOM     25  C21 <0> d   1       0.213   4.061   0.499  0.00  0.00     0.121 A 
ATOM     26  S1  <0> d   1       1.658   3.531   1.408  0.00  0.00    -0.067 SA
ATOM     27  C27 <0> d   1       2.451   5.118   1.510  0.00  0.00     0.035 A 
ATOM     28  C22 <0> d   1       1.534   5.958   0.837  0.00  0.00     0.075 A 
ATOM     29  C26 <0> d   1       3.621   5.585   2.056  0.00  0.00     0.021 A 
ATOM     30  N4  <0> d   1       0.430   5.352   0.355  0.00  0.00    -0.239 NA
ATOM     31  C23 <0> d   1       1.887   7.326   0.752  0.00  0.00     0.033 A 
ATOM     32  C24 <0> d   1       3.057   7.783   1.301  0.00  0.00     0.002 A 
ATOM     33  C25 <0> d   1       3.933   6.928   1.955  0.00  0.00     0.002 A 
ENDBRANCH   1  25
TORSDOF 6
