REMARK  7 active torsions:
REMARK  status: ('A' for Active; 'I' for Inactive)
REMARK    1  A    between atoms: C6_6  and  C7_7 
REMARK    2  A    between atoms: C13_14  and  O4_28 
REMARK    3  A    between atoms: C14_15  and  C16_18 
REMARK    4  A    between atoms: C16_18  and  N1_19 
REMARK    5  A    between atoms: N2_22  and  C21_25 
REMARK    6  A    between atoms: C21_25  and  C22_26 
REMARK    7  A    between atoms: C22_26  and  O3_27 
ROOT
ATOM      1  C7  <0> d   1       1.569  -2.015  -1.056  0.00  0.00     0.053 C 
ATOM      2  C8  <0> d   1       1.125  -0.734  -1.025  0.00  0.00     0.127 A 
ATOM      3  C9  <0> d   1      -0.272  -0.293  -1.170  0.00  0.00     0.218 A 
ATOM      4  O1  <0> d   1      -1.258  -0.988  -1.341  0.00  0.00    -0.284 OA
ATOM      5  C10 <0> d   1      -0.209   1.175  -1.062  0.00  0.00     0.051 A 
ATOM      6  C11 <0> d   1      -1.179   2.178  -1.111  0.00  0.00     0.021 A 
ATOM      7  C12 <0> d   1      -0.811   3.487  -0.981  0.00  0.00     0.038 A 
ATOM      8  C13 <0> d   1       0.527   3.822  -0.790  0.00  0.00     0.076 A 
ATOM      9  C14 <0> d   1       1.499   2.837  -0.735  0.00  0.00     0.038 A 
ATOM     10  C15 <0> d   1       1.143   1.501  -0.871  0.00  0.00     0.101 A 
ATOM     11  O2  <0> d   1       1.886   0.373  -0.854  0.00  0.00    -0.305 OA
ENDROOT
BRANCH   9  12
ATOM     12  C16 <0> d   1       2.944   3.215  -0.529  0.00  0.00     0.317 C 
BRANCH  12  13
ATOM     13  N1  <0> d   1       3.584   3.431  -1.833  0.00  0.00     0.096 N 
ATOM     14  C20 <0> d   1       4.918   4.027  -1.673  0.00  0.00     0.303 C 
ATOM     15  C19 <0> d   1       5.517   4.309  -3.052  0.00  0.00     0.302 C 
ATOM     16  N2  <0> d   1       5.592   3.056  -3.816  0.00  0.00     0.093 N 
ATOM     17  C18 <0> d   1       4.259   2.460  -3.977  0.00  0.00     0.302 C 
ATOM     18  C17 <0> d   1       3.659   2.178  -2.597  0.00  0.00     0.303 C 
BRANCH  16  19
ATOM     19  C21 <0> d   1       6.233   3.272  -5.120  0.00  0.00     0.298 C 
BRANCH  19  20
ATOM     20  C22 <0> d   1       5.292   4.071  -6.024  0.00  0.00     0.194 C 
BRANCH  20  21
ATOM     21  O3  <0> d   1       5.133   5.390  -5.498  0.00  0.00    -0.399 OA
ATOM     22  H22 <0> d   1       4.488   6.115  -6.017  0.00  0.00     0.209 HD
ENDBRANCH  20  21
ENDBRANCH  19  20
ENDBRANCH  16  19
ENDBRANCH  12  13
ENDBRANCH   9  12
BRANCH   8  23
ATOM     23  O4  <0> d   1       0.882   5.126  -0.657  0.00  0.00    -0.360 OA
ATOM     24  H23 <0> d   1       1.937   5.396  -0.506  0.00  0.00     0.217 HD
ENDBRANCH   8  23
BRANCH   1  25
ATOM     25  C6  <0> d   1       3.011  -2.294  -1.007  0.00  0.00    -0.033 A 
ATOM     26  C1  <0> d   1       3.481  -3.601  -1.180  0.00  0.00     0.013 A 
ATOM     27  C2  <0> d   1       4.835  -3.854  -1.138  0.00  0.00     0.024 A 
ATOM     28  C3  <0> d   1       5.730  -2.820  -0.913  0.00  0.00     0.034 A 
ATOM     29  C4  <0> d   1       5.272  -1.525  -0.734  0.00  0.00     0.024 A 
ATOM     30 Cl1  <0> d   1       7.433  -3.150  -0.854  0.00  0.00    -0.084 Cl
ATOM     31  C5  <0> d   1       3.921  -1.255  -0.779  0.00  0.00     0.013 A 
ENDBRANCH   1  25
TORSDOF 7
