REMARK  6 active torsions:
REMARK  status: ('A' for Active; 'I' for Inactive)
REMARK    1  A    between atoms: C2_2  and  O1_3 
REMARK    2  A    between atoms: O1_3  and  C3_4 
REMARK    3  A    between atoms: C6_7  and  C9_11 
REMARK    4  A    between atoms: C10_12  and  C12_17 
REMARK    5  A    between atoms: C15_20  and  O4_25 
REMARK    6  A    between atoms: C16_21  and  O3_23 
ROOT
ATOM      1  C9  <0> d   1      -2.014  -6.090  -0.216  0.00  0.00     0.102 A 
ATOM      2  C10 <0> d   1      -3.216  -6.775   0.091  0.00  0.00     0.022 A 
ATOM      3  C11 <0> d   1      -2.909  -8.094   0.241  0.00  0.00     0.124 A 
ATOM      4  N1  <0> d   1      -1.582  -8.235   0.040  0.00  0.00    -0.288 N 
ATOM      5  N2  <0> d   1      -1.043  -6.976  -0.250  0.00  0.00    -0.174 NA
ATOM      6  H1  <0> d   1      -1.087  -9.068   0.084  0.00  0.00     0.188 HD
ENDROOT
BRANCH   1   7
ATOM      7  C6  <0> d   1      -1.877  -4.634  -0.462  0.00  0.00     0.032 A 
ATOM      8  C5  <0> d   1      -2.760  -3.985  -1.322  0.00  0.00     0.019 A 
ATOM      9  C4  <0> d   1      -2.630  -2.631  -1.549  0.00  0.00     0.038 A 
ATOM     10  C3  <0> d   1      -1.622  -1.911  -0.921  0.00  0.00     0.071 A 
ATOM     11  C8  <0> d   1      -0.736  -2.551  -0.068  0.00  0.00     0.077 A 
ATOM     12  C7  <0> d   1      -0.861  -3.909   0.170  0.00  0.00     0.122 A 
ATOM     13  O2  <0> d   1       0.003  -4.537   1.009  0.00  0.00    -0.191 OA
BRANCH  10  14
ATOM     14  O1  <0> d   1      -1.499  -0.577  -1.149  0.00  0.00    -0.351 OA
BRANCH  14  15
ATOM     15  C2  <0> d   1      -2.445   0.019  -2.039  0.00  0.00     0.171 C 
ATOM     16  C1  <0> d   1      -2.151   1.515  -2.169  0.00  0.00     0.034 C 
ENDBRANCH  14  15
ENDBRANCH  10  14
ENDBRANCH   1   7
BRANCH   2  17
ATOM     17  C12 <0> d   1      -4.563  -6.167   0.225  0.00  0.00    -0.019 A 
ATOM     18  C17 <0> d   1      -5.624  -6.646  -0.541  0.00  0.00     0.052 A 
ATOM     19  C16 <0> d   1      -6.880  -6.080  -0.409  0.00  0.00     0.102 A 
ATOM     20  C15 <0> d   1      -7.079  -5.027   0.480  0.00  0.00     0.101 A 
ATOM     21  C14 <0> d   1      -6.021  -4.548   1.238  0.00  0.00     0.040 A 
ATOM     22  C13 <0> d   1      -4.768  -5.113   1.113  0.00  0.00     0.015 A 
BRANCH  19  23
ATOM     23  O3  <0> d   1      -7.919  -6.549  -1.151  0.00  0.00    -0.353 OA
ATOM     24  C18 <0> d   1      -7.643  -7.631  -2.043  0.00  0.00     0.210 C 
ENDBRANCH  19  23
BRANCH  20  25
ATOM     25  O4  <0> d   1      -8.312  -4.469   0.606  0.00  0.00    -0.353 OA
ATOM     26  C19 <0> d   1      -8.445  -3.393   1.537  0.00  0.00     0.210 C 
ENDBRANCH  20  25
ENDBRANCH   2  17
TORSDOF 6
