REMARK  5 active torsions:
REMARK  status: ('A' for Active; 'I' for Inactive)
REMARK    1  A    between atoms: O1_2  and  C2_3 
REMARK    2  A    between atoms: C5_6  and  C8_9 
REMARK    3  A    between atoms: C9_10  and  C12_19 
REMARK    4  A    between atoms: C10_14  and  C11_15 
REMARK    5  A    between atoms: C15_22  and  O3_26 
ROOT
ATOM      1  C8  <0> d   1      -4.908  -2.745   0.083  0.00  0.00     0.039 A 
ATOM      2  C9  <0> d   1      -5.532  -3.356  -1.034  0.00  0.00     0.103 A 
ATOM      3  N1  <0> d   1      -6.751  -3.697  -0.677  0.00  0.00    -0.173 NA
ATOM      4  H1  <0> d   1      -7.753  -3.454   1.175  0.00  0.00     0.189 HD
ATOM      5  N2  <0> d   1      -6.942  -3.321   0.658  0.00  0.00    -0.272 N 
ATOM      6  C10 <0> d   1      -5.807  -2.747   1.107  0.00  0.00     0.147 A 
ENDROOT
BRANCH   2   7
ATOM      7  C12 <0> d   1      -4.920  -3.571  -2.367  0.00  0.00     0.032 A 
ATOM      8  C17 <0> d   1      -5.026  -4.817  -2.994  0.00  0.00     0.122 A 
ATOM      9  C16 <0> d   1      -4.458  -5.010  -4.242  0.00  0.00     0.077 A 
ATOM     10  O2  <0> d   1      -5.690  -5.833  -2.383  0.00  0.00    -0.191 OA
ATOM     11  C15 <0> d   1      -3.776  -3.974  -4.861  0.00  0.00     0.068 A 
ATOM     12  C14 <0> d   1      -3.665  -2.738  -4.236  0.00  0.00     0.037 A 
ATOM     13  C13 <0> d   1      -4.233  -2.535  -2.996  0.00  0.00     0.019 A 
BRANCH  11  14
ATOM     14  O3  <0> d   1      -3.214  -4.168  -6.083  0.00  0.00    -0.361 OA
ATOM     15  H12 <0> d   1      -2.302  -4.486  -6.051  0.00  0.00     0.217 HD
ENDBRANCH  11  14
ENDBRANCH   2   7
BRANCH   1  16
ATOM     16  C5  <0> d   1      -3.525  -2.208   0.130  0.00  0.00    -0.021 A 
ATOM     17  C4  <0> d   1      -3.313  -0.837   0.261  0.00  0.00     0.015 A 
ATOM     18  C3  <0> d   1      -2.027  -0.340   0.305  0.00  0.00     0.037 A 
ATOM     19  C2  <0> d   1      -0.945  -1.205   0.219  0.00  0.00     0.068 A 
ATOM     20  C7  <0> d   1      -1.153  -2.570   0.083  0.00  0.00     0.037 A 
ATOM     21  C6  <0> d   1      -2.437  -3.073   0.044  0.00  0.00     0.015 A 
BRANCH  19  22
ATOM     22  O1  <0> d   1       0.322  -0.713   0.263  0.00  0.00    -0.356 OA
ATOM     23  C1  <0> d   1       0.463   0.703   0.405  0.00  0.00     0.210 C 
ENDBRANCH  19  22
ENDBRANCH   1  16
BRANCH   6  24
ATOM     24  C11 <0> d   1      -5.575  -2.203   2.493  0.00  0.00     0.434 C 
ATOM     25  F1  <0> d   1      -6.728  -2.384   3.264  0.00  0.00    -0.165 F 
ATOM     26  F2  <0> d   1      -4.505  -2.881   3.087  0.00  0.00    -0.165 F 
ATOM     27  F3  <0> d   1      -5.276  -0.838   2.414  0.00  0.00    -0.165 F 
ENDBRANCH   6  24
TORSDOF 5
