REMARK  5 active torsions:
REMARK  status: ('A' for Active; 'I' for Inactive)
REMARK    1  A    between atoms: N2_5  and  C6_8 
REMARK    2  A    between atoms: C6_8  and  C7_9 
REMARK    3  A    between atoms: C8_10  and  O4_28 
REMARK    4  A    between atoms: C14_17  and  C15_18 
REMARK    5  A    between atoms: C20_23  and  O2_24 
ROOT
ATOM      1  C7  <0> d   1       2.406  -3.647   1.393  0.00  0.00     0.038 A 
ATOM      2  C8  <0> d   1       3.776  -3.701   1.192  0.00  0.00     0.076 A 
ATOM      3  C9  <0> d   1       4.611  -4.261   2.156  0.00  0.00     0.038 A 
ATOM      4  C10 <0> d   1       4.084  -4.762   3.313  0.00  0.00     0.021 A 
ATOM      5  C11 <0> d   1       2.707  -4.713   3.528  0.00  0.00     0.051 A 
ATOM      6  C12 <0> d   1       1.855  -4.147   2.566  0.00  0.00     0.101 A 
ATOM      7  O1  <0> d   1       0.576  -4.207   2.998  0.00  0.00    -0.305 OA
ATOM      8  C13 <0> d   1       0.484  -4.783   4.219  0.00  0.00     0.128 A 
ATOM      9  C14 <0> d   1      -0.658  -4.991   4.924  0.00  0.00     0.055 C 
ATOM     10  C22 <0> d   1       1.843  -5.156   4.638  0.00  0.00     0.218 A 
ATOM     11  O3  <0> d   1       2.182  -5.697   5.677  0.00  0.00    -0.284 OA
ENDROOT
BRANCH   9  12
ATOM     12  C15 <0> d   1      -1.933  -4.463   4.427  0.00  0.00    -0.000 A 
ATOM     13  C20 <0> d   1      -3.038  -4.354   5.289  0.00  0.00     0.078 A 
ATOM     14  C19 <0> d   1      -4.235  -3.848   4.809  0.00  0.00     0.037 A 
ATOM     15  C18 <0> d   1      -4.344  -3.463   3.486  0.00  0.00     0.003 A 
ATOM     16  C17 <0> d   1      -3.260  -3.573   2.631  0.00  0.00     0.001 A 
ATOM     17  C16 <0> d   1      -2.059  -4.069   3.089  0.00  0.00     0.014 A 
BRANCH  13  18
ATOM     18  O2  <0> d   1      -2.931  -4.738   6.586  0.00  0.00    -0.355 OA
ATOM     19  C21 <0> d   1      -4.096  -4.598   7.402  0.00  0.00     0.210 C 
ENDBRANCH  13  18
ENDBRANCH   9  12
BRANCH   1  20
ATOM     20  C6  <0> d   1       1.514  -3.039   0.341  0.00  0.00     0.317 C 
BRANCH  20  21
ATOM     21  N2  <0> d   1       1.367  -1.599   0.596  0.00  0.00     0.096 N 
ATOM     22  C3  <0> d   1       0.705  -0.930  -0.532  0.00  0.00     0.303 C 
ATOM     23  C2  <0> d   1       0.643   0.576  -0.263  0.00  0.00     0.302 C 
ATOM     24  N1  <0> d   1      -0.086   0.817   0.991  0.00  0.00     0.087 N 
ATOM     25  C1  <0> d   1      -0.233   2.256   1.246  0.00  0.00     0.310 C 
ATOM     26  C5  <0> d   1       0.577   0.147   2.119  0.00  0.00     0.302 C 
ATOM     27  C4  <0> d   1       0.639  -1.358   1.849  0.00  0.00     0.303 C 
ENDBRANCH  20  21
ENDBRANCH   1  20
BRANCH   2  28
ATOM     28  O4  <0> d   1       4.308  -3.206   0.046  0.00  0.00    -0.360 OA
ATOM     29  H24 <0> d   1       4.550  -2.271   0.097  0.00  0.00     0.217 HD
ENDBRANCH   2  28
TORSDOF 5
