REMARK  8 active torsions:
REMARK  status: ('A' for Active; 'I' for Inactive)
REMARK    1  A    between atoms: O1_2  and  C2_3 
REMARK    2  A    between atoms: C6_7  and  C9_11 
REMARK    3  A    between atoms: C7_8  and  O2_9 
REMARK    4  A    between atoms: C15_18  and  O7_39 
REMARK    5  A    between atoms: C16_19  and  C18_22 
REMARK    6  A    between atoms: C18_22  and  N1_23 
REMARK    7  A    between atoms: N2_26  and  C23_29 
REMARK    8  A    between atoms: C23_29  and  C24_30 
ROOT
ATOM      1  C9  <0> d   1      -2.572  -4.139   0.018  0.00  0.00     0.055 C 
ATOM      2  C10 <0> d   1      -3.774  -4.761   0.129  0.00  0.00     0.128 A 
ATOM      3  C11 <0> d   1      -3.995  -6.208   0.253  0.00  0.00     0.218 A 
ATOM      4  O3  <0> d   1      -3.155  -7.092   0.277  0.00  0.00    -0.284 OA
ATOM      5  C12 <0> d   1      -5.459  -6.353   0.342  0.00  0.00     0.051 A 
ATOM      6  C13 <0> d   1      -6.303  -7.457   0.473  0.00  0.00     0.021 A 
ATOM      7  C14 <0> d   1      -7.656  -7.276   0.531  0.00  0.00     0.038 A 
ATOM      8  C15 <0> d   1      -8.194  -5.994   0.460  0.00  0.00     0.076 A 
ATOM      9  C16 <0> d   1      -7.368  -4.889   0.330  0.00  0.00     0.038 A 
ATOM     10  C17 <0> d   1      -5.990  -5.055   0.270  0.00  0.00     0.101 A 
ATOM     11  O4  <0> d   1      -4.986  -4.159   0.152  0.00  0.00    -0.305 OA
ENDROOT
BRANCH   9  12
ATOM     12  C18 <0> d   1      -7.964  -3.507   0.254  0.00  0.00     0.317 C 
BRANCH  12  13
ATOM     13  N1  <0> d   1      -8.085  -2.951   1.609  0.00  0.00     0.096 N 
ATOM     14  C22 <0> d   1      -8.874  -1.711   1.601  0.00  0.00     0.303 C 
ATOM     15  C21 <0> d   1      -9.043  -1.208   3.036  0.00  0.00     0.303 C 
ATOM     16  N2  <0> d   1      -7.719  -0.982   3.632  0.00  0.00     0.096 N 
ATOM     17  C20 <0> d   1      -6.929  -2.221   3.640  0.00  0.00     0.303 C 
ATOM     18  C19 <0> d   1      -6.761  -2.724   2.204  0.00  0.00     0.303 C 
BRANCH  16  19
ATOM     19  C23 <0> d   1      -7.839  -0.425   4.986  0.00  0.00     0.311 C 
BRANCH  19  20
ATOM     20  C24 <0> d   1      -8.435   0.957   4.910  0.00  0.00    -0.027 A 
ATOM     21  C29 <0> d   1      -9.807   1.121   4.971  0.00  0.00     0.048 A 
ATOM     22  C28 <0> d   1     -10.357   2.390   4.907  0.00  0.00     0.105 A 
ATOM     23  C27 <0> d   1      -9.525   3.499   4.770  0.00  0.00     0.105 A 
ATOM     24  O5  <0> d   1     -11.652   2.819   4.947  0.00  0.00    -0.323 OA
ATOM     25  C26 <0> d   1      -8.152   3.327   4.704  0.00  0.00     0.040 A 
ATOM     26  O6  <0> d   1     -10.300   4.622   4.725  0.00  0.00    -0.323 OA
ATOM     27  C25 <0> d   1      -7.610   2.058   4.775  0.00  0.00     0.012 A 
ATOM     28  C30 <0> d   1     -11.583   4.226   5.245  0.00  0.00     0.352 C 
ENDBRANCH  19  20
ENDBRANCH  16  19
ENDBRANCH  12  13
ENDBRANCH   9  12
BRANCH   8  29
ATOM     29  O7  <0> d   1      -9.540  -5.824   0.519  0.00  0.00    -0.360 OA
ATOM     30  H30 <0> d   1      -9.883  -5.707   1.415  0.00  0.00     0.217 HD
ENDBRANCH   8  29
BRANCH   1  31
ATOM     31  C6  <0> d   1      -2.499  -2.674   0.030  0.00  0.00     0.003 A 
ATOM     32  C5  <0> d   1      -3.650  -1.909  -0.205  0.00  0.00     0.014 A 
ATOM     33  C4  <0> d   1      -3.576  -0.534  -0.191  0.00  0.00     0.004 A 
ATOM     34  C3  <0> d   1      -2.370   0.101   0.055  0.00  0.00     0.040 A 
ATOM     35  C2  <0> d   1      -1.223  -0.640   0.289  0.00  0.00     0.102 A 
ATOM     36  C7  <0> d   1      -1.276  -2.029   0.273  0.00  0.00     0.111 A 
BRANCH  35  37
ATOM     37  O1  <0> d   1      -0.043  -0.008   0.530  0.00  0.00    -0.353 OA
ATOM     38  C1  <0> d   1      -0.060   1.421   0.532  0.00  0.00     0.210 C 
ENDBRANCH  35  37
BRANCH  36  39
ATOM     39  O2  <0> d   1      -0.153  -2.758   0.497  0.00  0.00    -0.352 OA
ATOM     40  C8  <0> d   1       0.133  -3.111   1.852  0.00  0.00     0.210 C 
ENDBRANCH  36  39
ENDBRANCH   1  31
TORSDOF 8
