REMARK  5 active torsions:
REMARK  status: ('A' for Active; 'I' for Inactive)
REMARK    1  A    between atoms: C7_8  and  C8_10 
REMARK    2  A    between atoms: C13_15  and  O3_35 
REMARK    3  A    between atoms: C14_16  and  C17_21 
REMARK    4  A    between atoms: C17_21  and  N2_22 
REMARK    5  A    between atoms: N3_25  and  C22_28 
ROOT
ATOM      1  C8  <0> d   1       2.970  -4.014  -0.046  0.00  0.00     0.076 C 
ATOM      2  C9  <0> d   1       4.300  -4.408  -0.042  0.00  0.00     0.034 C 
ATOM      3  C10 <0> d   1       4.585  -5.796  -0.079  0.00  0.00    -0.000 A 
ATOM      4  C11 <0> d   1       5.895  -6.258   0.125  0.00  0.00     0.017 A 
ATOM      5  C12 <0> d   1       6.150  -7.597   0.129  0.00  0.00     0.038 A 
ATOM      6  C13 <0> d   1       5.120  -8.514  -0.077  0.00  0.00     0.076 A 
ATOM      7  C14 <0> d   1       3.824  -8.077  -0.299  0.00  0.00     0.035 A 
ATOM      8  C15 <0> d   1       3.548  -6.719  -0.313  0.00  0.00     0.100 A 
ATOM      9  O1  <0> d   1       2.293  -6.278  -0.573  0.00  0.00    -0.273 OA
ATOM     10  C16 <0> d   1       1.948  -5.076  -0.050  0.00  0.00     0.301 C 
ATOM     11  O2  <0> d   1       0.834  -4.878   0.398  0.00  0.00    -0.259 OA
ENDROOT
BRANCH   7  12
ATOM     12  C17 <0> d   1       2.718  -9.075  -0.526  0.00  0.00     0.279 C 
BRANCH  12  13
ATOM     13  N2  <0> d   1       2.112  -9.435   0.763  0.00  0.00    -0.064 N 
ATOM     14  C21 <0> d   1       0.959 -10.315   0.530  0.00  0.00     0.255 C 
ATOM     15  C20 <0> d   1       0.258 -10.598   1.863  0.00  0.00     0.150 C 
ATOM     16  N3  <0> d   1       1.250 -11.135   2.807  0.00  0.00    -0.378 N 
ATOM     17  C19 <0> d   1       2.513 -10.399   2.979  0.00  0.00     0.150 C 
ATOM     18  C18 <0> d   1       3.107 -10.125   1.593  0.00  0.00     0.255 C 
ATOM     19  H23 <0> d   1       1.805  -8.598   1.235  0.00  0.00     0.280 HD
BRANCH  16  20
ATOM     20  C22 <0> d   1       1.001 -12.311   3.521  0.00  0.00     0.030 A 
ATOM     21  C27 <0> d   1      -0.241 -12.927   3.435  0.00  0.00     0.032 A 
ATOM     22  C26 <0> d   1      -0.483 -14.091   4.137  0.00  0.00     0.044 A 
ATOM     23  C25 <0> d   1       0.507 -14.639   4.935  0.00  0.00     0.116 A 
ATOM     24  C24 <0> d   1       1.744 -14.024   5.027  0.00  0.00     0.044 A 
ATOM     25  F1  <0> d   1       0.266 -15.775   5.625  0.00  0.00    -0.206 F 
ATOM     26  C23 <0> d   1       1.993 -12.862   4.322  0.00  0.00     0.032 A 
ENDBRANCH  16  20
ENDBRANCH  12  13
ENDBRANCH   7  12
BRANCH   6  27
ATOM     27  O3  <0> d   1       5.389  -9.844  -0.059  0.00  0.00    -0.360 OA
ATOM     28  H22 <0> d   1       5.311 -10.249   0.816  0.00  0.00     0.217 HD
ENDBRANCH   6  27
BRANCH   1  29
ATOM     29  C7  <0> d   1       2.593  -2.588  -0.042  0.00  0.00     0.115 A 
ATOM     30  N1  <0> d   1       1.390  -2.052  -0.040  0.00  0.00    -0.239 NA
ATOM     31  C5  <0> d   1       1.193  -0.719  -0.036  0.00  0.00     0.075 A 
ATOM     32  C4  <0> d   1       2.364   0.075  -0.033  0.00  0.00     0.035 A 
ATOM     33  C6  <0> d   1      -0.037  -0.018  -0.034  0.00  0.00     0.033 A 
ATOM     34  C3  <0> d   1       2.326   1.448  -0.028  0.00  0.00     0.021 A 
ATOM     35  S1  <0> d   1       3.652  -1.148  -0.037  0.00  0.00    -0.067 SA
ATOM     36  C2  <0> d   1       1.103   2.094  -0.027  0.00  0.00     0.002 A 
ATOM     37  C1  <0> d   1      -0.064   1.342  -0.030  0.00  0.00     0.002 A 
ENDBRANCH   1  29
TORSDOF 5
