REMARK  3 active torsions:
REMARK  status: ('A' for Active; 'I' for Inactive)
REMARK    1  A    between atoms: C9_10  and  C10_11 
REMARK    2  A    between atoms: N1_20  and  C19_23 
REMARK    3  A    between atoms: C19_23  and  C20_24 
ROOT
ATOM      1  C1  <0> d   1       0.074   1.497   0.006  0.00  0.00     0.054 C 
ATOM      2  C2  <0> d   1       0.087  -0.010   0.000  0.00  0.00     0.007 A 
ATOM      3  C3  <0> d   1       0.108  -0.697  -1.206  0.00  0.00     0.087 A 
ATOM      4  C4  <0> d   1       0.122  -2.088  -1.224  0.00  0.00     0.005 A 
ATOM      5  C5  <0> d   1       0.112  -2.789  -0.049  0.00  0.00     0.030 A 
ATOM      6  C6  <0> d   1       0.090  -2.111   1.169  0.00  0.00     0.052 A 
ATOM      7  C7  <0> d   1       0.085  -0.707   1.201  0.00  0.00     0.099 A 
ATOM      8  O1  <0> d   1       0.073  -0.279   2.482  0.00  0.00    -0.305 OA
ATOM      9  C8  <0> d   1       0.073  -1.312   3.358  0.00  0.00     0.127 A 
ATOM     10  C9  <0> d   1       0.061  -1.216   4.710  0.00  0.00     0.053 C 
ATOM     11  C16 <0> d   1       0.075  -2.558   2.574  0.00  0.00     0.218 A 
ATOM     12  O2  <0> d   1       0.078  -3.703   2.992  0.00  0.00    -0.284 OA
ATOM     13  C17 <0> d   1       0.152  -2.842  -2.529  0.00  0.00     0.317 C 
ATOM     14  N1  <0> d   1      -0.253  -1.949  -3.623  0.00  0.00     0.121 N 
ATOM     15  C18 <0> d   1       0.500  -0.686  -3.553  0.00  0.00     0.448 C 
ATOM     16  O3  <0> d   1       0.113   0.011  -2.366  0.00  0.00    -0.320 OA
ENDROOT
BRANCH  14  17
ATOM     17  C19 <0> d   1      -0.071  -2.598  -4.928  0.00  0.00     0.332 C 
BRANCH  17  18
ATOM     18  C20 <0> d   1      -0.718  -1.761  -6.001  0.00  0.00     0.037 A 
ATOM     19  N2  <0> d   1      -0.047  -0.763  -6.543  0.00  0.00    -0.368 N 
ATOM     20  C24 <0> d   1      -0.571  -0.008  -7.488  0.00  0.00     0.088 A 
ATOM     21  H21 <0> d   1       0.857  -0.583  -6.240  0.00  0.00     0.165 HD
ATOM     22  C23 <0> d   1      -1.858  -0.231  -7.940  0.00  0.00     0.017 A 
ATOM     23  C22 <0> d   1      -2.596  -1.268  -7.390  0.00  0.00     0.003 A 
ATOM     24  C21 <0> d   1      -2.010  -2.045  -6.402  0.00  0.00     0.027 A 
ENDBRANCH  17  18
ENDBRANCH  14  17
BRANCH  10  25
ATOM     25  C10 <0> d   1       0.163   0.102   5.354  0.00  0.00    -0.034 A 
ATOM     26  C15 <0> d   1       0.143   1.267   4.580  0.00  0.00     0.011 A 
ATOM     27  C14 <0> d   1       0.232   2.499   5.192  0.00  0.00     0.001 A 
ATOM     28  C13 <0> d   1       0.353   2.584   6.568  0.00  0.00     0.000 A 
ATOM     29  C12 <0> d   1       0.380   1.436   7.341  0.00  0.00     0.001 A 
ATOM     30  C11 <0> d   1       0.285   0.197   6.745  0.00  0.00     0.011 A 
ENDBRANCH  10  25
TORSDOF 3
