REMARK  5 active torsions:
REMARK  status: ('A' for Active; 'I' for Inactive)
REMARK    1  A    between atoms: C5_5  and  C12_14 
REMARK    2  A    between atoms: C12_14  and  N1_15 
REMARK    3  A    between atoms: N2_18  and  C17_21 
REMARK    4  A    between atoms: C17_21  and  C18_22 
REMARK    5  A    between atoms: C19_23  and  C20_24 
ROOT
ATOM      1  N1  <0> d   1      -0.701   1.560   1.216  0.00  0.00     0.096 N 
ATOM      2  C13 <0> d   1      -0.013   1.086   0.008  0.00  0.00     0.303 C 
ATOM      3  C14 <0> d   1      -0.754   1.593  -1.231  0.00  0.00     0.303 C 
ATOM      4  N2  <0> d   1      -0.806   3.062  -1.200  0.00  0.00     0.095 N 
ATOM      5  C15 <0> d   1      -1.495   3.536   0.008  0.00  0.00     0.303 C 
ATOM      6  C16 <0> d   1      -0.754   3.029   1.247  0.00  0.00     0.303 C 
ENDROOT
BRANCH   1   7
ATOM      7  C12 <0> d   1      -0.062   1.031   2.429  0.00  0.00     0.312 C 
BRANCH   7   8
ATOM      8  C5  <0> d   1      -0.631   1.724   3.640  0.00  0.00    -0.011 A 
ATOM      9  C4  <0> d   1      -1.925   1.321   4.200  0.00  0.00     0.007 A 
ATOM     10  C3  <0> d   1      -2.667   0.283   3.628  0.00  0.00     0.022 A 
ATOM     11  C8  <0> d   1      -2.417   1.995   5.332  0.00  0.00     0.090 A 
ATOM     12  C2  <0> d   1      -3.869  -0.071   4.174  0.00  0.00    -0.055 A 
ATOM     13  C1  <0> d   1      -4.670  -1.189   3.558  0.00  0.00     0.049 C 
ATOM     14  C10 <0> d   1      -4.359   0.593   5.289  0.00  0.00    -0.053 A 
ATOM     15  C9  <0> d   1      -3.642   1.619   5.869  0.00  0.00     0.045 A 
ATOM     16  C11 <0> d   1      -5.687   0.188   5.875  0.00  0.00     0.049 C 
ATOM     17  O2  <0> d   1      -1.700   2.997   5.883  0.00  0.00    -0.275 OA
ATOM     18  C7  <0> d   1      -0.515   3.371   5.375  0.00  0.00     0.288 A 
ATOM     19  C6  <0> d   1       0.042   2.734   4.245  0.00  0.00     0.092 A 
ATOM     20  O1  <0> d   1       0.097   4.280   5.906  0.00  0.00    -0.260 OA
ENDBRANCH   7   8
ENDBRANCH   1   7
BRANCH   4  21
ATOM     21  C17 <0> d   1      -1.445   3.591  -2.413  0.00  0.00     0.300 C 
BRANCH  21  22
ATOM     22  C18 <0> d   1      -1.263   5.086  -2.464  0.00  0.00     0.004 C 
ATOM     23  C19 <0> d   1      -0.710   5.651  -3.529  0.00  0.00     0.009 C 
BRANCH  23  24
ATOM     24  C20 <0> d   1      -0.532   7.117  -3.579  0.00  0.00    -0.036 A 
ATOM     25  C25 <0> d   1       0.050   7.714  -4.698  0.00  0.00     0.011 A 
ATOM     26  C24 <0> d   1       0.213   9.084  -4.739  0.00  0.00     0.001 A 
ATOM     27  C23 <0> d   1      -0.199   9.864  -3.673  0.00  0.00     0.000 A 
ATOM     28  C22 <0> d   1      -0.775   9.278  -2.561  0.00  0.00     0.001 A 
ATOM     29  C21 <0> d   1      -0.950   7.911  -2.510  0.00  0.00     0.011 A 
ENDBRANCH  23  24
ENDBRANCH  21  22
ENDBRANCH   4  21
TORSDOF 5
