REMARK  6 active torsions:
REMARK  status: ('A' for Active; 'I' for Inactive)
REMARK    1  A    between atoms: O1_2  and  C2_3 
REMARK    2  A    between atoms: C6_7  and  C11_14 
REMARK    3  A    between atoms: C11_14  and  N1_15 
REMARK    4  A    between atoms: N2_18  and  C16_21 
REMARK    5  A    between atoms: C16_21  and  C17_22 
REMARK    6  A    between atoms: C16_21  and  C23_28 
ROOT
ATOM      1  N1  <0> d   1      -2.106  -1.861   3.127  0.00  0.00     0.096 N 
ATOM      2  C12 <0> d   1      -2.263  -2.420   1.777  0.00  0.00     0.303 C 
ATOM      3  C13 <0> d   1      -1.176  -1.851   0.863  0.00  0.00     0.304 C 
ATOM      4  N2  <0> d   1      -1.277  -0.385   0.839  0.00  0.00     0.105 N 
ATOM      5  C14 <0> d   1      -1.120   0.173   2.189  0.00  0.00     0.304 C 
ATOM      6  C15 <0> d   1      -2.208  -0.396   3.103  0.00  0.00     0.303 C 
ENDROOT
BRANCH   1   7
ATOM      7  C11 <0> d   1      -3.087  -2.442   4.054  0.00  0.00     0.312 C 
BRANCH   7   8
ATOM      8  C6  <0> d   1      -2.962  -1.775   5.400  0.00  0.00    -0.011 A 
ATOM      9  C5  <0> d   1      -1.840  -2.082   6.289  0.00  0.00     0.006 A 
ATOM     10  C4  <0> d   1      -0.847  -2.993   5.910  0.00  0.00     0.017 A 
ATOM     11  C9  <0> d   1      -1.760  -1.433   7.535  0.00  0.00     0.093 A 
ATOM     12  C3  <0> d   1       0.191  -3.257   6.755  0.00  0.00     0.038 A 
ATOM     13  C2  <0> d   1       0.272  -2.620   7.992  0.00  0.00     0.070 A 
ATOM     14  C10 <0> d   1      -0.698  -1.712   8.382  0.00  0.00     0.075 A 
ATOM     15  O3  <0> d   1      -2.717  -0.550   7.896  0.00  0.00    -0.275 OA
ATOM     16  C8  <0> d   1      -3.750  -0.269   7.087  0.00  0.00     0.288 A 
ATOM     17  C7  <0> d   1      -3.890  -0.878   5.823  0.00  0.00     0.092 A 
ATOM     18  O2  <0> d   1      -4.589   0.534   7.454  0.00  0.00    -0.260 OA
BRANCH  13  19
ATOM     19  O1  <0> d   1       1.311  -2.893   8.822  0.00  0.00    -0.356 OA
ATOM     20  C1  <0> d   1       2.279  -3.838   8.362  0.00  0.00     0.210 C 
ENDBRANCH  13  19
ENDBRANCH   7   8
ENDBRANCH   1   7
BRANCH   4  21
ATOM     21  C16 <0> d   1      -0.296   0.196  -0.088  0.00  0.00     0.289 C 
BRANCH  21  22
ATOM     22  C17 <0> d   1      -0.430   1.697  -0.086  0.00  0.00    -0.021 A 
ATOM     23  C22 <0> d   1       0.700   2.491  -0.128  0.00  0.00     0.010 A 
ATOM     24  C21 <0> d   1       0.578   3.868  -0.127  0.00  0.00     0.001 A 
ATOM     25  C20 <0> d   1      -0.675   4.450  -0.083  0.00  0.00     0.000 A 
ATOM     26  C19 <0> d   1      -1.806   3.656  -0.041  0.00  0.00     0.001 A 
ATOM     27  C18 <0> d   1      -1.683   2.279  -0.048  0.00  0.00     0.010 A 
ENDBRANCH  21  22
BRANCH  21  28
ATOM     28  C23 <0> d   1      -0.547  -0.329  -1.479  0.00  0.00    -0.021 A 
ATOM     29  C28 <0> d   1       0.518  -0.661  -2.295  0.00  0.00     0.010 A 
ATOM     30  C27 <0> d   1       0.288  -1.143  -3.570  0.00  0.00     0.001 A 
ATOM     31  C26 <0> d   1      -1.008  -1.292  -4.029  0.00  0.00     0.000 A 
ATOM     32  C25 <0> d   1      -2.073  -0.961  -3.212  0.00  0.00     0.001 A 
ATOM     33  C24 <0> d   1      -1.843  -0.484  -1.935  0.00  0.00     0.010 A 
ENDBRANCH  21  28
ENDBRANCH   4  21
TORSDOF 6
