REMARK  4 active torsions:
REMARK  status: ('A' for Active; 'I' for Inactive)
REMARK    1  A    between atoms: N1_2  and  C3_4 
REMARK    2  A    between atoms: C3_4  and  C4_5 
REMARK    3  A    between atoms: C11_13  and  C13_16 
REMARK    4  A    between atoms: C16_19  and  O3_22 
ROOT
ATOM      1  C4  <0> d   1      -0.718   1.572   1.248  0.00  0.00     0.039 A 
ATOM      2  C5  <0> d   1      -0.361   2.781   1.821  0.00  0.00     0.118 A 
ATOM      3  C6  <0> d   1      -1.010   3.244   2.963  0.00  0.00     0.041 A 
ATOM      4  C7  <0> d   1      -2.002   2.502   3.541  0.00  0.00     0.021 A 
ATOM      5  C8  <0> d   1      -2.369   1.279   2.978  0.00  0.00     0.050 A 
ATOM      6  C9  <0> d   1      -1.724   0.806   1.822  0.00  0.00     0.100 A 
ATOM      7  O1  <0> d   1      -2.081  -0.375   1.280  0.00  0.00    -0.320 OA
ATOM      8  C10 <0> d   1      -3.040  -1.154   1.786  0.00  0.00     0.159 A 
ATOM      9  C11 <0> d   1      -3.743  -0.819   2.899  0.00  0.00     0.048 A 
ATOM     10  C12 <0> d   1      -3.435   0.453   3.574  0.00  0.00     0.197 A 
ATOM     11  O2  <0> d   1      -4.032   0.806   4.575  0.00  0.00    -0.286 OA
ATOM     12  O4  <0> d   1       0.627   3.525   1.261  0.00  0.00    -0.191 OA
ENDROOT
BRANCH   9  13
ATOM     13  C13 <0> d   1      -4.799  -1.718   3.424  0.00  0.00    -0.020 A 
ATOM     14  C18 <0> d   1      -5.785  -2.211   2.571  0.00  0.00     0.015 A 
ATOM     15  C17 <0> d   1      -6.766  -3.046   3.063  0.00  0.00     0.037 A 
ATOM     16  C16 <0> d   1      -6.773  -3.395   4.407  0.00  0.00     0.068 A 
ATOM     17  C15 <0> d   1      -5.793  -2.906   5.259  0.00  0.00     0.037 A 
ATOM     18  C14 <0> d   1      -4.806  -2.075   4.772  0.00  0.00     0.015 A 
BRANCH  16  19
ATOM     19  O3  <0> d   1      -7.741  -4.218   4.888  0.00  0.00    -0.356 OA
ATOM     20  C19 <0> d   1      -7.689  -4.537   6.280  0.00  0.00     0.210 C 
ENDBRANCH  16  19
ENDBRANCH   9  13
BRANCH   1  21
ATOM     21  C3  <0> d   1      -0.013   1.086   0.008  0.00  0.00     0.278 C 
BRANCH  21  22
ATOM     22  N1  <0> d   1      -0.723   1.572  -1.182  0.00  0.00    -0.075 N 
ATOM     23  C1  <0> d   1      -0.640   3.036  -1.283  0.00  0.00     0.269 C 
ATOM     24  C2  <0> d   1      -0.211   0.930  -2.400  0.00  0.00     0.269 C 
ATOM     25  H19 <0> d   1      -1.784   1.301  -1.077  0.00  0.00     0.279 HD
ENDBRANCH  21  22
ENDBRANCH   1  21
TORSDOF 4
