REMARK  7 active torsions:
REMARK  status: ('A' for Active; 'I' for Inactive)
REMARK    1  A    between atoms: C2_2  and  C3_3 
REMARK    2  A    between atoms: C5_5  and  C15_19 
REMARK    3  A    between atoms: C6_6  and  O2_18 
REMARK    4  A    between atoms: C7_7  and  C9_10 
REMARK    5  A    between atoms: C8_8  and  O1_9 
REMARK    6  A    between atoms: C9_10  and  N1_11 
REMARK    7  A    between atoms: C17_23  and  C18_24 
ROOT
ATOM      1  C3  <0> d   1      -1.412  -0.526   0.013  0.00  0.00    -0.024 A 
ATOM      2  C4  <0> d   1      -2.009  -0.862   1.206  0.00  0.00     0.026 A 
ATOM      3  C5  <0> d   1      -3.323  -1.346   1.218  0.00  0.00     0.026 A 
ATOM      4  C6  <0> d   1      -4.024  -1.486   0.007  0.00  0.00     0.088 A 
ATOM      5  C7  <0> d   1      -3.410  -1.145  -1.184  0.00  0.00     0.035 A 
ATOM      6  C8  <0> d   1      -2.110  -0.660  -1.183  0.00  0.00     0.082 A 
ENDROOT
BRANCH   3   7
ATOM      7  C15 <0> d   1      -3.965  -1.706   2.487  0.00  0.00     0.087 A 
ATOM      8  C17 <0> d   1      -3.360  -1.619   3.875  0.00  0.00     0.159 A 
ATOM      9  C16 <0> d   1      -4.475  -2.113   4.775  0.00  0.00     0.048 A 
ATOM     10  N4  <0> d   1      -5.463  -2.408   3.995  0.00  0.00    -0.158 NA
ATOM     11  C26 <0> d   1      -4.437  -2.241   6.276  0.00  0.00     0.069 C 
ATOM     12  N3  <0> d   1      -5.173  -2.173   2.655  0.00  0.00    -0.153 NA
BRANCH   8  13
ATOM     13  C18 <0> d   1      -2.151  -2.511   3.984  0.00  0.00     0.123 A 
ATOM     14  N6  <0> d   1      -0.893  -2.086   4.279  0.00  0.00    -0.337 N 
ATOM     15  C24 <0> d   1      -0.075  -3.198   4.289  0.00  0.00     0.064 A 
ATOM     16  C25 <0> d   1      -0.483  -0.704   4.543  0.00  0.00     0.158 C 
ATOM     17  C19 <0> d   1      -0.902  -4.290   3.977  0.00  0.00     0.085 A 
ATOM     18  C23 <0> d   1       1.279  -3.401   4.522  0.00  0.00     0.032 A 
ATOM     19  N5  <0> d   1      -2.156  -3.800   3.804  0.00  0.00    -0.232 NA
ATOM     20  C20 <0> d   1      -0.350  -5.572   3.906  0.00  0.00     0.034 A 
ATOM     21  C21 <0> d   1       0.984  -5.753   4.138  0.00  0.00     0.002 A 
ATOM     22  C22 <0> d   1       1.801  -4.674   4.446  0.00  0.00     0.002 A 
ENDBRANCH   8  13
ENDBRANCH   3   7
BRANCH   4  23
ATOM     23  O2  <0> d   1      -5.297  -1.955   0.008  0.00  0.00    -0.359 OA
ATOM     24  H22 <0> d   1      -5.970  -1.265   0.089  0.00  0.00     0.217 HD
ENDBRANCH   4  23
BRANCH   1  25
ATOM     25  C2  <0> d   1       0.002  -0.004   0.002  0.00  0.00     0.037 C 
ATOM     26  C1  <0> d   1      -0.019   1.526   0.010  0.00  0.00     0.010 C 
ENDBRANCH   1  25
BRANCH   5  27
ATOM     27  C9  <0> d   1      -4.157  -1.293  -2.485  0.00  0.00     0.279 C 
BRANCH  27  28
ATOM     28  N1  <0> d   1      -4.876  -0.046  -2.782  0.00  0.00    -0.064 N 
ATOM     29  C13 <0> d   1      -5.506  -0.148  -4.105  0.00  0.00     0.265 C 
ATOM     30  C12 <0> d   1      -6.239   1.157  -4.422  0.00  0.00     0.299 C 
ATOM     31  N2  <0> d   1      -7.258   1.406  -3.393  0.00  0.00     0.087 N 
ATOM     32  C11 <0> d   1      -6.646   1.485  -2.060  0.00  0.00     0.299 C 
ATOM     33  C14 <0> d   1      -8.024   2.623  -3.694  0.00  0.00     0.310 C 
ATOM     34  C10 <0> d   1      -5.909   0.177  -1.762  0.00  0.00     0.265 C 
ATOM     35  H33 <0> d   1      -4.226   0.726  -2.777  0.00  0.00     0.280 HD
ENDBRANCH  27  28
ENDBRANCH   5  27
BRANCH   6  36
ATOM     36  O1  <0> d   1      -1.514  -0.321  -2.355  0.00  0.00    -0.359 OA
ATOM     37  H8  <0> d   1      -1.037  -1.048  -2.779  0.00  0.00     0.217 HD
ENDBRANCH   6  36
TORSDOF 7
