REMARK  3 active torsions:
REMARK  status: ('A' for Active; 'I' for Inactive)
REMARK    1  A    between atoms: N1_6  and  C7_8 
REMARK    2  A    between atoms: C7_8  and  C8_9 
REMARK    3  A    between atoms: C15_17  and  C17_20 
ROOT
ATOM      1  C8  <0> d   1      -1.388  -0.527   0.259  0.00  0.00     0.039 A 
ATOM      2  C9  <0> d   1      -1.807  -0.776   1.555  0.00  0.00     0.118 A 
ATOM      3  C10 <0> d   1      -3.091  -1.254   1.806  0.00  0.00     0.041 A 
ATOM      4  C11 <0> d   1      -3.952  -1.493   0.772  0.00  0.00     0.021 A 
ATOM      5  C12 <0> d   1      -3.542  -1.252  -0.539  0.00  0.00     0.050 A 
ATOM      6  C13 <0> d   1      -2.250  -0.765  -0.803  0.00  0.00     0.100 A 
ATOM      7  O1  <0> d   1      -1.856  -0.531  -2.071  0.00  0.00    -0.320 OA
ATOM      8  C14 <0> d   1      -2.640  -0.740  -3.132  0.00  0.00     0.159 A 
ATOM      9  C15 <0> d   1      -3.910  -1.208  -3.022  0.00  0.00     0.048 A 
ATOM     10  C16 <0> d   1      -4.444  -1.498  -1.680  0.00  0.00     0.197 A 
ATOM     11  O2  <0> d   1      -5.576  -1.920  -1.520  0.00  0.00    -0.286 OA
ATOM     12  O3  <0> d   1      -0.960  -0.549   2.591  0.00  0.00    -0.191 OA
ENDROOT
BRANCH   1  13
ATOM     13  C7  <0> d   1       0.002  -0.004   0.002  0.00  0.00     0.279 C 
BRANCH  13  14
ATOM     14  N1  <0> d   1      -0.018   1.465   0.010  0.00  0.00    -0.067 N 
ATOM     15  C5  <0> d   1      -0.785   1.974   1.154  0.00  0.00     0.235 C 
ATOM     16  C4  <0> d   1      -0.907   3.496   1.050  0.00  0.00     0.028 C 
ATOM     17  C3  <0> d   1       0.493   4.116   1.034  0.00  0.00     0.007 C 
ATOM     18  C2  <0> d   1       1.287   3.533  -0.138  0.00  0.00     0.007 C 
ATOM     19  C1  <0> d   1       2.707   4.102  -0.126  0.00  0.00     0.011 C 
ATOM     20  C6  <0> d   1       1.346   2.010   0.000  0.00  0.00     0.239 C 
ATOM     21  H23 <0> d   1      -0.521   1.803  -0.908  0.00  0.00     0.280 HD
ENDBRANCH  13  14
ENDBRANCH   1  13
BRANCH   9  22
ATOM     22  C17 <0> d   1      -4.743  -1.425  -4.229  0.00  0.00    -0.020 A 
ATOM     23  C22 <0> d   1      -4.866  -0.417  -5.184  0.00  0.00     0.012 A 
ATOM     24  C21 <0> d   1      -5.642  -0.624  -6.306  0.00  0.00     0.001 A 
ATOM     25  C20 <0> d   1      -6.297  -1.829  -6.484  0.00  0.00     0.000 A 
ATOM     26  C19 <0> d   1      -6.179  -2.833  -5.540  0.00  0.00     0.001 A 
ATOM     27  C18 <0> d   1      -5.401  -2.639  -4.417  0.00  0.00     0.012 A 
ENDBRANCH   9  22
TORSDOF 3
