REMARK  7 active torsions:
REMARK  status: ('A' for Active; 'I' for Inactive)
REMARK    1  A    between atoms: C7_8  and  C8_9 
REMARK    2  A    between atoms: C7_8  and  N3_32 
REMARK    3  A    between atoms: C8_9  and  O2_10 
REMARK    4  A    between atoms: O2_10  and  C9_11 
REMARK    5  A    between atoms: C12_14  and  C15_18 
REMARK    6  A    between atoms: C13_15  and  O3_17 
REMARK    7  A    between atoms: C16_19  and  C18_24 
ROOT
ATOM      1  C9  <0> d   1       1.094   4.678   4.097  0.00  0.00     0.071 A 
ATOM      2  C10 <0> d   1       0.017   3.800   4.071  0.00  0.00     0.038 A 
ATOM      3  C11 <0> d   1      -0.517   3.394   2.867  0.00  0.00     0.019 A 
ATOM      4  C12 <0> d   1       0.031   3.857   1.669  0.00  0.00     0.029 A 
ATOM      5  C13 <0> d   1       1.117   4.742   1.697  0.00  0.00     0.081 A 
ATOM      6  C14 <0> d   1       1.642   5.147   2.912  0.00  0.00     0.074 A 
ENDROOT
BRANCH   4   7
ATOM      7  C15 <0> d   1      -0.536   3.420   0.378  0.00  0.00     0.102 A 
ATOM      8  C16 <0> d   1       0.096   2.637  -0.580  0.00  0.00     0.022 A 
ATOM      9  C17 <0> d   1      -0.805   2.473  -1.647  0.00  0.00     0.124 A 
ATOM     10  N1  <0> d   1      -1.910   3.108  -1.359  0.00  0.00    -0.288 N 
ATOM     11  H3  <0> d   1      -2.720   3.157  -1.944  0.00  0.00     0.188 HD
ATOM     12  N2  <0> d   1      -1.778   3.710  -0.102  0.00  0.00    -0.174 NA
BRANCH   8  13
ATOM     13  C18 <0> d   1       1.466   2.078  -0.492  0.00  0.00    -0.022 A 
ATOM     14  C23 <0> d   1       1.829   1.280   0.593  0.00  0.00     0.014 A 
ATOM     15  C22 <0> d   1       3.104   0.758   0.666  0.00  0.00     0.020 A 
ATOM     16  C21 <0> d   1       4.022   1.023  -0.335  0.00  0.00     0.011 A 
ATOM     17  C20 <0> d   1       3.667   1.814  -1.415  0.00  0.00     0.020 A 
ATOM     18 Br1  <0> d   1       5.767   0.304  -0.228  0.00  0.00    -0.051 Br
ATOM     19  C19 <0> d   1       2.395   2.342  -1.498  0.00  0.00     0.014 A 
ENDBRANCH   8  13
ENDBRANCH   4   7
BRANCH   5  20
ATOM     20  O3  <0> d   1       1.652   5.201   0.536  0.00  0.00    -0.360 OA
ATOM     21  H21 <0> d   1       1.249   6.018   0.213  0.00  0.00     0.217 HD
ENDBRANCH   5  20
BRANCH   1  22
ATOM     22  O2  <0> d   1       1.613   5.078   5.287  0.00  0.00    -0.349 OA
BRANCH  22  23
ATOM     23  C8  <0> d   1       1.001   4.557   6.469  0.00  0.00     0.203 C 
BRANCH  23  24
ATOM     24  C7  <0> d   1       1.715   5.116   7.701  0.00  0.00     0.261 C 
BRANCH  24  25
ATOM     25  N3  <0> d   1       1.534   6.584   7.731  0.00  0.00    -0.064 N 
ATOM     26  C3  <0> d   1       0.175   6.916   8.207  0.00  0.00     0.266 C 
ATOM     27  C2  <0> d   1       0.008   8.438   8.192  0.00  0.00     0.143 C 
ATOM     28  C1  <0> d   1      -1.374   8.806   8.736  0.00  0.00     0.041 C 
ATOM     29  O1  <0> d   1       1.018   9.032   9.011  0.00  0.00    -0.378 OA
ATOM     30  C5  <0> d   1       2.352   8.719   8.598  0.00  0.00     0.143 C 
ATOM     31  C4  <0> d   1       2.542   7.200   8.618  0.00  0.00     0.266 C 
ATOM     32  C6  <0> d   1       3.350   9.373   9.555  0.00  0.00     0.041 C 
ATOM     33  H27 <0> d   1       1.655   6.954   6.780  0.00  0.00     0.280 HD
ENDBRANCH  24  25
ENDBRANCH  23  24
ENDBRANCH  22  23
ENDBRANCH   1  22
TORSDOF 7
