REMARK  5 active torsions:
REMARK  status: ('A' for Active; 'I' for Inactive)
REMARK    1  A    between atoms: C3_3  and  C15_20 
REMARK    2  A    between atoms: C4_4  and  C5_8 
REMARK    3  A    between atoms: C8_11  and  O2_15 
REMARK    4  A    between atoms: O2_15  and  C11_16 
REMARK    5  A    between atoms: C11_16  and  C12_17 
ROOT
ATOM      1  C1  <0> d   1       1.262   1.151  -0.510  0.00  0.00     0.070 C 
ATOM      2  C2  <0> d   1       0.574  -0.160  -0.229  0.00  0.00     0.037 A 
ATOM      3  C3  <0> d   1       0.796  -0.970   0.844  0.00  0.00     0.029 A 
ATOM      4  C4  <0> d   1      -0.060  -2.093   0.715  0.00  0.00     0.103 A 
ATOM      5  N1  <0> d   1      -0.754  -1.944  -0.392  0.00  0.00    -0.173 NA
ATOM      6  H1  <0> d   1      -0.734  -0.380  -1.820  0.00  0.00     0.189 HD
ATOM      7  N2  <0> d   1      -0.376  -0.739  -0.993  0.00  0.00    -0.281 N 
ENDROOT
BRANCH   4   8
ATOM      8  C5  <0> d   1      -0.154  -3.232   1.659  0.00  0.00     0.032 A 
ATOM      9  C10 <0> d   1      -0.144  -4.545   1.177  0.00  0.00     0.122 A 
ATOM     10  C9  <0> d   1      -0.226  -5.605   2.064  0.00  0.00     0.077 A 
ATOM     11  O1  <0> d   1      -0.048  -4.780  -0.158  0.00  0.00    -0.191 OA
ATOM     12  C8  <0> d   1      -0.330  -5.363   3.426  0.00  0.00     0.071 A 
ATOM     13  C7  <0> d   1      -0.345  -4.060   3.905  0.00  0.00     0.038 A 
ATOM     14  C6  <0> d   1      -0.258  -2.998   3.029  0.00  0.00     0.019 A 
BRANCH  12  15
ATOM     15  O2  <0> d   1      -0.415  -6.405   4.294  0.00  0.00    -0.347 OA
BRANCH  15  16
ATOM     16  C11 <0> d   1      -0.394  -7.720   3.734  0.00  0.00     0.208 C 
BRANCH  16  17
ATOM     17  C12 <0> d   1      -0.498  -8.738   4.840  0.00  0.00    -0.069 C 
ATOM     18  C13 <0> d   1      -0.589  -8.345   6.086  0.00  0.00     0.016 C 
ATOM     19  C14 <0> d   1      -0.497 -10.209   4.512  0.00  0.00     0.044 C 
ENDBRANCH  16  17
ENDBRANCH  15  16
ENDBRANCH  12  15
ENDBRANCH   4   8
BRANCH   3  20
ATOM     20  C15 <0> d   1       1.758  -0.722   1.946  0.00  0.00    -0.021 A 
ATOM     21  C20 <0> d   1       1.553   0.339   2.827  0.00  0.00     0.014 A 
ATOM     22  C19 <0> d   1       2.448   0.562   3.854  0.00  0.00     0.020 A 
ATOM     23  C18 <0> d   1       3.554  -0.258   4.002  0.00  0.00     0.011 A 
ATOM     24  C17 <0> d   1       3.764  -1.309   3.127  0.00  0.00     0.020 A 
ATOM     25 Br1  <0> d   1       4.780   0.059   5.406  0.00  0.00    -0.051 Br
ATOM     26  C16 <0> d   1       2.872  -1.544   2.100  0.00  0.00     0.014 A 
ENDBRANCH   3  20
TORSDOF 5
