REMARK  7 active torsions:
REMARK  status: ('A' for Active; 'I' for Inactive)
REMARK    1  A    between atoms: C2_2  and  O1_3 
REMARK    2  A    between atoms: O1_3  and  C3_4 
REMARK    3  A    between atoms: C3_4  and  C4_6 
REMARK    4  A    between atoms: C9_11  and  O3_21 
REMARK    5  A    between atoms: C10_12  and  C11_13 
REMARK    6  A    between atoms: C11_13  and  N1_14 
REMARK    7  A    between atoms: C17_23  and  C18_24 
ROOT
ATOM      1  C4  <0> d   1      -2.596  -2.350   0.059  0.00  0.00     0.087 A 
ATOM      2  C5  <0> d   1      -3.550  -2.645  -1.027  0.00  0.00     0.028 A 
ATOM      3  C6  <0> d   1      -4.676  -3.203  -0.403  0.00  0.00     0.088 A 
ATOM      4  C7  <0> d   1      -5.762  -3.589  -1.179  0.00  0.00     0.041 A 
ATOM      5  C8  <0> d   1      -5.728  -3.423  -2.547  0.00  0.00     0.040 A 
ATOM      6  C9  <0> d   1      -4.611  -2.871  -3.166  0.00  0.00     0.074 A 
ATOM      7  C10 <0> d   1      -3.522  -2.480  -2.409  0.00  0.00     0.017 A 
ATOM      8  O4  <0> d   1      -4.440  -3.246   0.926  0.00  0.00    -0.308 OA
ATOM      9  C17 <0> d   1      -3.226  -2.759   1.225  0.00  0.00     0.103 A 
ENDROOT
BRANCH   7  10
ATOM     10  C11 <0> d   1      -2.311  -1.880  -3.076  0.00  0.00     0.315 C 
BRANCH  10  11
ATOM     11  N1  <0> d   1      -2.397  -0.415  -3.020  0.00  0.00     0.096 N 
ATOM     12  C15 <0> d   1      -1.133   0.203  -3.445  0.00  0.00     0.303 C 
ATOM     13  C14 <0> d   1      -1.237   1.723  -3.297  0.00  0.00     0.302 C 
ATOM     14  N2  <0> d   1      -2.360   2.216  -4.106  0.00  0.00     0.087 N 
ATOM     15  C13 <0> d   1      -3.623   1.598  -3.681  0.00  0.00     0.302 C 
ATOM     16  C16 <0> d   1      -2.446   3.682  -4.050  0.00  0.00     0.310 C 
ATOM     17  C12 <0> d   1      -3.520   0.078  -3.829  0.00  0.00     0.303 C 
ENDBRANCH  10  11
ENDBRANCH   7  10
BRANCH   6  18
ATOM     18  O3  <0> d   1      -4.591  -2.714  -4.516  0.00  0.00    -0.360 OA
ATOM     19  H21 <0> d   1      -4.935  -1.862  -4.818  0.00  0.00     0.217 HD
ENDBRANCH   6  18
BRANCH   1  20
ATOM     20  C3  <0> d   1      -1.262  -1.757  -0.068  0.00  0.00     0.297 C 
ATOM     21  O2  <0> d   1      -0.306  -2.462  -0.329  0.00  0.00    -0.259 OA
BRANCH  20  22
ATOM     22  O1  <0> d   1      -1.095  -0.430   0.105  0.00  0.00    -0.318 OA
BRANCH  22  23
ATOM     23  C2  <0> d   1       0.233   0.080  -0.034  0.00  0.00     0.174 C 
ATOM     24  C1  <0> d   1       0.224   1.593   0.195  0.00  0.00     0.034 C 
ENDBRANCH  22  23
ENDBRANCH  20  22
ENDBRANCH   1  20
BRANCH   9  25
ATOM     25  C18 <0> d   1      -2.652  -2.668   2.581  0.00  0.00    -0.001 A 
ATOM     26  C23 <0> d   1      -3.385  -3.114   3.684  0.00  0.00     0.014 A 
ATOM     27  C22 <0> d   1      -2.841  -3.032   4.949  0.00  0.00     0.001 A 
ATOM     28  C21 <0> d   1      -1.576  -2.499   5.128  0.00  0.00     0.000 A 
ATOM     29  C20 <0> d   1      -0.847  -2.050   4.041  0.00  0.00     0.001 A 
ATOM     30  C19 <0> d   1      -1.376  -2.132   2.770  0.00  0.00     0.014 A 
ENDBRANCH   9  25
TORSDOF 7
