REMARK  9 active torsions:
REMARK  status: ('A' for Active; 'I' for Inactive)
REMARK    1  A    between atoms: C2_2  and  C4_4 
REMARK    2  A    between atoms: C4_4  and  O1_5 
REMARK    3  A    between atoms: O1_5  and  C5_6 
REMARK    4  A    between atoms: C7_8  and  O2_9 
REMARK    5  A    between atoms: C8_10  and  C9_11 
REMARK    6  A    between atoms: C10_12  and  C14_22 
REMARK    7  A    between atoms: C11_13  and  C13_18 
REMARK    8  A    between atoms: C12_15  and  N3_17 
REMARK    9  A    between atoms: C17_25  and  O3_28 
ROOT
ATOM      1  C9  <0> d   1       0.196  -5.529  -5.552  0.00  0.00     0.102 A 
ATOM      2  C10 <0> d   1      -0.091  -5.008  -6.830  0.00  0.00     0.039 A 
ATOM      3  C11 <0> d   1      -0.256  -5.905  -7.885  0.00  0.00     0.172 A 
ATOM      4  N1  <0> d   1      -0.139  -7.202  -7.653  0.00  0.00    -0.058 NA
ATOM      5  C12 <0> d   1       0.132  -7.659  -6.439  0.00  0.00     0.721 A 
ATOM      6  N2  <0> d   1       0.302  -6.848  -5.406  0.00  0.00    -0.062 NA
ENDROOT
BRANCH   1   7
ATOM      7  C8  <0> d   1       0.381  -4.626  -4.396  0.00  0.00     0.028 A 
ATOM      8  C7  <0> d   1      -0.309  -4.864  -3.200  0.00  0.00     0.081 A 
ATOM      9  C6  <0> d   1      -0.131  -4.015  -2.122  0.00  0.00     0.074 A 
ATOM     10  C5  <0> d   1       0.729  -2.932  -2.227  0.00  0.00     0.071 A 
ATOM     11  C22 <0> d   1       1.411  -2.692  -3.414  0.00  0.00     0.038 A 
ATOM     12  C21 <0> d   1       1.244  -3.534  -4.492  0.00  0.00     0.019 A 
BRANCH   8  13
ATOM     13  O2  <0> d   1      -1.151  -5.925  -3.100  0.00  0.00    -0.360 OA
ATOM     14  H20 <0> d   1      -2.062  -5.729  -3.357  0.00  0.00     0.217 HD
ENDBRANCH   8  13
BRANCH  10  15
ATOM     15  O1  <0> d   1       0.902  -2.100  -1.167  0.00  0.00    -0.347 OA
BRANCH  15  16
ATOM     16  C4  <0> d   1       1.797  -1.000  -1.345  0.00  0.00     0.208 C 
BRANCH  16  17
ATOM     17  C2  <0> d   1       1.861  -0.194  -0.073  0.00  0.00    -0.069 C 
ATOM     18  C1  <0> d   1       2.740   1.028   0.001  0.00  0.00     0.044 C 
ATOM     19  C3  <0> d   1       1.151  -0.554   0.967  0.00  0.00     0.016 C 
ENDBRANCH  16  17
ENDBRANCH  15  16
ENDBRANCH  10  15
ENDBRANCH   1   7
BRANCH   2  20
ATOM     20  C14 <0> d   1      -0.214  -3.547  -7.046  0.00  0.00    -0.021 A 
ATOM     21  C19 <0> d   1       0.741  -2.870  -7.803  0.00  0.00     0.015 A 
ATOM     22  C18 <0> d   1       0.620  -1.512  -8.008  0.00  0.00     0.037 A 
ATOM     23  C17 <0> d   1      -0.445  -0.817  -7.451  0.00  0.00     0.068 A 
ATOM     24  C16 <0> d   1      -1.395  -1.487  -6.692  0.00  0.00     0.037 A 
ATOM     25  C15 <0> d   1      -1.283  -2.846  -6.489  0.00  0.00     0.015 A 
BRANCH  23  26
ATOM     26  O3  <0> d   1      -0.559   0.523  -7.650  0.00  0.00    -0.356 OA
ATOM     27  C20 <0> d   1       0.453   1.149  -8.441  0.00  0.00     0.210 C 
ENDBRANCH  23  26
ENDBRANCH   2  20
BRANCH   5  28
ATOM     28  N3  <0> d   1       0.245  -9.024  -6.245  0.00  0.00    -0.231 N 
ATOM     29  H9  <0> d   1       0.127  -9.632  -6.992  0.00  0.00     0.174 HD
ATOM     30  H10 <0> d   1       0.443  -9.375  -5.362  0.00  0.00     0.174 HD
ENDBRANCH   5  28
BRANCH   3  31
ATOM     31  C13 <0> d   1      -0.564  -5.403  -9.273  0.00  0.00     0.436 C 
ATOM     32  F1  <0> d   1       0.631  -5.177  -9.963  0.00  0.00    -0.165 F 
ATOM     33  F2  <0> d   1      -1.324  -6.358  -9.956  0.00  0.00    -0.165 F 
ATOM     34  F3  <0> d   1      -1.286  -4.207  -9.186  0.00  0.00    -0.165 F 
ENDBRANCH   3  31
TORSDOF 9
