REMARK  5 active torsions:
REMARK  status: ('A' for Active; 'I' for Inactive)
REMARK    1  A    between atoms: C4_4  and  N1_7 
REMARK    2  A    between atoms: N2_10  and  C11_13 
REMARK    3  A    between atoms: C11_13  and  C12_14 
REMARK    4  A    between atoms: C13_15  and  O3_34 
REMARK    5  A    between atoms: C19_23  and  C21_25 
ROOT
ATOM      1  C12 <0> d   1       7.001  -4.029  -1.700  0.00  0.00     0.035 A 
ATOM      2  C13 <0> d   1       8.071  -4.382  -0.892  0.00  0.00     0.076 A 
ATOM      3  C14 <0> d   1       8.307  -5.719  -0.577  0.00  0.00     0.038 A 
ATOM      4  C15 <0> d   1       7.497  -6.699  -1.069  0.00  0.00     0.017 A 
ATOM      5  C16 <0> d   1       6.424  -6.364  -1.908  0.00  0.00    -0.000 A 
ATOM      6  C17 <0> d   1       6.161  -5.011  -2.198  0.00  0.00     0.100 A 
ATOM      7  O1  <0> d   1       5.082  -4.674  -2.946  0.00  0.00    -0.273 OA
ATOM      8  C18 <0> d   1       4.637  -5.598  -3.828  0.00  0.00     0.301 C 
ATOM      9  O2  <0> d   1       4.229  -5.274  -4.928  0.00  0.00    -0.259 OA
ATOM     10  C19 <0> d   1       4.662  -7.011  -3.412  0.00  0.00     0.076 C 
ATOM     11  C20 <0> d   1       5.595  -7.376  -2.454  0.00  0.00     0.034 C 
ENDROOT
BRANCH   1  12
ATOM     12  C11 <0> d   1       6.750  -2.580  -2.031  0.00  0.00     0.279 C 
BRANCH  12  13
ATOM     13  N2  <0> d   1       5.867  -1.992  -1.016  0.00  0.00    -0.064 N 
ATOM     14  C8  <0> d   1       5.719  -0.554  -1.271  0.00  0.00     0.255 C 
ATOM     15  C7  <0> d   1       4.892   0.081  -0.149  0.00  0.00     0.150 C 
ATOM     16  N1  <0> d   1       3.620  -0.649  -0.036  0.00  0.00    -0.378 N 
ATOM     17  C10 <0> d   1       3.669  -2.116   0.065  0.00  0.00     0.150 C 
ATOM     18  C9  <0> d   1       4.554  -2.648  -1.073  0.00  0.00     0.255 C 
ATOM     19  H24 <0> d   1       6.270  -2.130  -0.101  0.00  0.00     0.280 HD
BRANCH  16  20
ATOM     20  C4  <0> d   1       2.400   0.031  -0.021  0.00  0.00     0.030 A 
ATOM     21  C3  <0> d   1       1.206  -0.680  -0.027  0.00  0.00     0.029 A 
ATOM     22  C2  <0> d   1       0.002  -0.004  -0.011  0.00  0.00     0.002 A 
ATOM     23  C1  <0> d   1      -0.017   1.379   0.011  0.00  0.00     0.000 A 
ATOM     24  C6  <0> d   1       1.170   2.089   0.018  0.00  0.00     0.002 A 
ATOM     25  C5  <0> d   1       2.377   1.420   0.002  0.00  0.00     0.029 A 
ENDBRANCH  16  20
ENDBRANCH  12  13
ENDBRANCH   1  12
BRANCH   2  26
ATOM     26  O3  <0> d   1       8.895  -3.419  -0.406  0.00  0.00    -0.360 OA
ATOM     27  H23 <0> d   1       8.620  -3.062   0.450  0.00  0.00     0.217 HD
ENDBRANCH   2  26
BRANCH  10  28
ATOM     28  C21 <0> d   1       3.740  -8.000  -4.000  0.00  0.00     0.115 A 
ATOM     29  S1  <0> d   1       2.481  -7.758  -5.245  0.00  0.00    -0.067 SA
ATOM     30  C27 <0> d   1       1.910  -9.438  -5.316  0.00  0.00     0.035 A 
ATOM     31  C22 <0> d   1       2.733 -10.077  -4.358  0.00  0.00     0.075 A 
ATOM     32  C26 <0> d   1       0.950 -10.111  -6.031  0.00  0.00     0.021 A 
ATOM     33  N3  <0> d   1       3.630  -9.286  -3.738  0.00  0.00    -0.239 NA
ATOM     34  C23 <0> d   1       2.513 -11.463  -4.171  0.00  0.00     0.033 A 
ATOM     35  C24 <0> d   1       1.560 -12.120  -4.885  0.00  0.00     0.002 A 
ATOM     36  C25 <0> d   1       0.768 -11.465  -5.818  0.00  0.00     0.002 A 
ENDBRANCH  10  28
TORSDOF 5
