REMARK  4 active torsions:
REMARK  status: ('A' for Active; 'I' for Inactive)
REMARK    1  A    between atoms: O1_2  and  C2_3 
REMARK    2  A    between atoms: C7_8  and  C8_9 
REMARK    3  A    between atoms: C10_14  and  C11_15 
REMARK    4  A    between atoms: C14_18  and  O3_22 
ROOT
ATOM      1  C8  <0> d   1      -0.030  -2.873   0.015  0.00  0.00     0.025 A 
ATOM      2  C9  <0> d   1       0.357  -3.743  -0.959  0.00  0.00     0.124 A 
ATOM      3  N1  <0> d   1       1.583  -4.205  -0.636  0.00  0.00    -0.288 N 
ATOM      4  H1  <0> d   1       2.104  -4.840  -1.152  0.00  0.00     0.188 HD
ATOM      5  N2  <0> d   1       1.977  -3.611   0.569  0.00  0.00    -0.174 NA
ATOM      6  C10 <0> d   1       1.018  -2.804   0.967  0.00  0.00     0.102 A 
ENDROOT
BRANCH   6   7
ATOM      7  C11 <0> d   1       1.030  -1.974   2.195  0.00  0.00     0.032 A 
ATOM      8  C16 <0> d   1       2.152  -1.200   2.509  0.00  0.00     0.122 A 
ATOM      9  C15 <0> d   1       2.155  -0.423   3.654  0.00  0.00     0.077 A 
ATOM     10  O2  <0> d   1       3.235  -1.208   1.688  0.00  0.00    -0.191 OA
ATOM     11  C14 <0> d   1       1.051  -0.421   4.494  0.00  0.00     0.068 A 
ATOM     12  C13 <0> d   1      -0.062  -1.193   4.186  0.00  0.00     0.037 A 
ATOM     13  C12 <0> d   1      -0.076  -1.966   3.044  0.00  0.00     0.019 A 
BRANCH  11  14
ATOM     14  O3  <0> d   1       1.058   0.339   5.620  0.00  0.00    -0.361 OA
ATOM     15  H13 <0> d   1       1.403  -0.117   6.400  0.00  0.00     0.217 HD
ENDBRANCH  11  14
ENDBRANCH   6   7
BRANCH   1  16
ATOM     16  C7  <0> d   1      -1.312  -2.128   0.067  0.00  0.00     0.011 A 
ATOM     17  C2  <0> d   1      -1.319  -0.734  -0.040  0.00  0.00     0.079 A 
ATOM     18  C3  <0> d   1      -2.521  -0.047   0.004  0.00  0.00     0.037 A 
ATOM     19  C4  <0> d   1      -3.709  -0.737   0.158  0.00  0.00     0.003 A 
ATOM     20  C5  <0> d   1      -3.705  -2.116   0.270  0.00  0.00     0.001 A 
ATOM     21  C6  <0> d   1      -2.514  -2.813   0.228  0.00  0.00     0.015 A 
BRANCH  17  22
ATOM     22  O1  <0> d   1      -0.151  -0.056  -0.191  0.00  0.00    -0.355 OA
ATOM     23  C1  <0> d   1      -0.236   1.367  -0.294  0.00  0.00     0.210 C 
ENDBRANCH  17  22
ENDBRANCH   1  16
TORSDOF 4
