REMARK  6 active torsions:
REMARK  status: ('A' for Active; 'I' for Inactive)
REMARK    1  A    between atoms: C2_2  and  C4_4 
REMARK    2  A    between atoms: C4_4  and  O1_5 
REMARK    3  A    between atoms: O1_5  and  C5_6 
REMARK    4  A    between atoms: C8_9  and  C11_13 
REMARK    5  A    between atoms: C9_10  and  O2_12 
REMARK    6  A    between atoms: C12_14  and  C14_19 
ROOT
ATOM      1  C5  <0> d   1       0.592  -2.445  -2.638  0.00  0.00     0.071 A 
ATOM      2  C6  <0> d   1       0.379  -2.074  -3.959  0.00  0.00     0.038 A 
ATOM      3  C7  <0> d   1       0.235  -3.038  -4.935  0.00  0.00     0.019 A 
ATOM      4  C8  <0> d   1       0.304  -4.388  -4.596  0.00  0.00     0.029 A 
ATOM      5  C9  <0> d   1       0.520  -4.760  -3.265  0.00  0.00     0.081 A 
ATOM      6  C10 <0> d   1       0.668  -3.786  -2.293  0.00  0.00     0.074 A 
ENDROOT
BRANCH   4   7
ATOM      7  C11 <0> d   1       0.149  -5.426  -5.643  0.00  0.00     0.102 A 
ATOM      8  N2  <0> d   1       0.925  -6.473  -5.816  0.00  0.00    -0.174 NA
ATOM      9  N1  <0> d   1       0.442  -7.207  -6.905  0.00  0.00    -0.288 N 
ATOM     10  C13 <0> d   1      -0.644  -6.576  -7.397  0.00  0.00     0.124 A 
ATOM     11  H1  <0> d   1       0.825  -8.029  -7.251  0.00  0.00     0.188 HD
ATOM     12  C12 <0> d   1      -0.859  -5.464  -6.639  0.00  0.00     0.022 A 
BRANCH  12  13
ATOM     13  C14 <0> d   1      -1.948  -4.474  -6.823  0.00  0.00    -0.022 A 
ATOM     14  C19 <0> d   1      -2.118  -3.841  -8.053  0.00  0.00     0.012 A 
ATOM     15  C18 <0> d   1      -3.137  -2.925  -8.220  0.00  0.00     0.001 A 
ATOM     16  C17 <0> d   1      -3.982  -2.626  -7.166  0.00  0.00     0.000 A 
ATOM     17  C16 <0> d   1      -3.815  -3.248  -5.942  0.00  0.00     0.001 A 
ATOM     18  C15 <0> d   1      -2.803  -4.170  -5.765  0.00  0.00     0.012 A 
ENDBRANCH  12  13
ENDBRANCH   4   7
BRANCH   5  19
ATOM     19  O2  <0> d   1       0.588  -6.075  -2.928  0.00  0.00    -0.360 OA
ATOM     20  H12 <0> d   1       1.480  -6.445  -2.969  0.00  0.00     0.217 HD
ENDBRANCH   5  19
BRANCH   1  21
ATOM     21  O1  <0> d   1       0.733  -1.490  -1.681  0.00  0.00    -0.347 OA
BRANCH  21  22
ATOM     22  C4  <0> d   1       0.644  -0.128  -2.105  0.00  0.00     0.208 C 
BRANCH  22  23
ATOM     23  C2  <0> d   1       0.823   0.781  -0.916  0.00  0.00    -0.069 C 
ATOM     24  C1  <0> d   1       0.771   2.276  -1.097  0.00  0.00     0.044 C 
ATOM     25  C3  <0> d   1       1.023   0.271   0.274  0.00  0.00     0.016 C 
ENDBRANCH  22  23
ENDBRANCH  21  22
ENDBRANCH   1  21
TORSDOF 6
