REMARK  4 active torsions:
REMARK  status: ('A' for Active; 'I' for Inactive)
REMARK    1  A    between atoms: O1_2  and  C2_3 
REMARK    2  A    between atoms: C5_6  and  C8_10 
REMARK    3  A    between atoms: C6_7  and  O2_9 
REMARK    4  A    between atoms: C9_11  and  C11_16 
ROOT
ATOM      1  C8  <0> d   1      -5.062  -2.462   0.142  0.00  0.00     0.075 A 
ATOM      2  C9  <0> d   1      -5.434  -3.483   1.008  0.00  0.00     0.022 A 
ATOM      3  C10 <0> d   1      -6.623  -4.042   0.506  0.00  0.00     0.153 A 
ATOM      4  N1  <0> d   1      -6.953  -3.408  -0.587  0.00  0.00    -0.186 NA
ATOM      5  N2  <0> d   1      -6.004  -2.410  -0.841  0.00  0.00    -0.277 N 
ATOM      6  H1  <0> d   1      -6.014  -1.792  -1.588  0.00  0.00     0.189 HD
ENDROOT
BRANCH   1   7
ATOM      7  C5  <0> d   1      -3.875  -1.593   0.268  0.00  0.00     0.026 A 
ATOM      8  C4  <0> d   1      -2.851  -1.665  -0.678  0.00  0.00     0.019 A 
ATOM      9  C3  <0> d   1      -1.745  -0.852  -0.558  0.00  0.00     0.038 A 
ATOM     10  C2  <0> d   1      -1.644   0.040   0.503  0.00  0.00     0.070 A 
ATOM     11  C7  <0> d   1      -2.654   0.114   1.451  0.00  0.00     0.074 A 
ATOM     12  C6  <0> d   1      -3.772  -0.694   1.337  0.00  0.00     0.081 A 
BRANCH  10  13
ATOM     13  O1  <0> d   1      -0.551   0.838   0.615  0.00  0.00    -0.356 OA
ATOM     14  C1  <0> d   1       0.452   0.710  -0.396  0.00  0.00     0.210 C 
ENDBRANCH  10  13
BRANCH  12  15
ATOM     15  O2  <0> d   1      -4.764  -0.618   2.261  0.00  0.00    -0.360 OA
ATOM     16  H8  <0> d   1      -4.649  -1.216   3.013  0.00  0.00     0.217 HD
ENDBRANCH  12  15
ENDBRANCH   1   7
BRANCH   2  17
ATOM     17  C11 <0> d   1      -4.712  -3.905   2.232  0.00  0.00    -0.022 A 
ATOM     18  C16 <0> d   1      -5.374  -3.936   3.458  0.00  0.00     0.014 A 
ATOM     19  C15 <0> d   1      -4.699  -4.334   4.594  0.00  0.00     0.024 A 
ATOM     20  C14 <0> d   1      -3.364  -4.691   4.519  0.00  0.00     0.034 A 
ATOM     21  C13 <0> d   1      -2.700  -4.657   3.304  0.00  0.00     0.024 A 
ATOM     22 Cl1  <0> d   1      -2.518  -5.185   5.952  0.00  0.00    -0.084 Cl
ATOM     23  C12 <0> d   1      -3.368  -4.265   2.161  0.00  0.00     0.014 A 
ENDBRANCH   2  17
TORSDOF 4
