REMARK  9 active torsions:
REMARK  status: ('A' for Active; 'I' for Inactive)
REMARK    1  A    between atoms: C3_3  and  O3_23 
REMARK    2  A    between atoms: C6_6  and  C8_9 
REMARK    3  A    between atoms: C7_7  and  O1_8 
REMARK    4  A    between atoms: C9_10  and  C11_15 
REMARK    5  A    between atoms: C14_18  and  O2_21 
REMARK    6  A    between atoms: O3_23  and  C18_24 
REMARK    7  A    between atoms: C18_24  and  C19_25 
REMARK    8  A    between atoms: C19_25  and  N3_26 
REMARK    9  A    between atoms: N4_29  and  C24_32 
ROOT
ATOM      1  C1  <0> d   1       1.355   2.220   1.669  0.00  0.00     0.054 C 
ATOM      2  C2  <0> d   1       1.152   0.732   1.549  0.00  0.00     0.005 A 
ATOM      3  C3  <0> d   1       0.831   0.172   0.321  0.00  0.00     0.077 A 
ATOM      4  C4  <0> d   1       0.642  -1.199   0.204  0.00  0.00     0.038 A 
ATOM      5  C5  <0> d   1       0.773  -2.014   1.309  0.00  0.00     0.019 A 
ATOM      6  C6  <0> d   1       1.097  -1.460   2.549  0.00  0.00     0.027 A 
ATOM      7  C7  <0> d   1       1.291  -0.077   2.663  0.00  0.00     0.086 A 
ENDROOT
BRANCH   3   8
ATOM      8  O3  <0> d   1       0.700   0.969  -0.772  0.00  0.00    -0.349 OA
BRANCH   8   9
ATOM      9  C18 <0> d   1       0.368   0.328  -2.006  0.00  0.00     0.203 C 
BRANCH   9  10
ATOM     10  C19 <0> d   1       0.264   1.378  -3.114  0.00  0.00     0.261 C 
BRANCH  10  11
ATOM     11  N3  <0> d   1       1.574   2.012  -3.312  0.00  0.00    -0.066 N 
ATOM     12  C23 <0> d   1       2.520   1.021  -3.841  0.00  0.00     0.254 C 
ATOM     13  C22 <0> d   1       3.914   1.649  -3.941  0.00  0.00     0.150 C 
ATOM     14  N4  <0> d   1       3.815   2.880  -4.740  0.00  0.00    -0.378 N 
ATOM     15  C21 <0> d   1       2.779   3.860  -4.378  0.00  0.00     0.150 C 
ATOM     16  C20 <0> d   1       1.438   3.127  -4.258  0.00  0.00     0.254 C 
ATOM     17  H33 <0> d   1       1.915   2.362  -2.429  0.00  0.00     0.280 HD
BRANCH  14  18
ATOM     18  C24 <0> d   1       4.680   3.112  -5.811  0.00  0.00     0.030 A 
ATOM     19  C29 <0> d   1       5.575   2.127  -6.210  0.00  0.00     0.029 A 
ATOM     20  C28 <0> d   1       6.425   2.359  -7.273  0.00  0.00     0.002 A 
ATOM     21  C27 <0> d   1       6.394   3.573  -7.934  0.00  0.00     0.000 A 
ATOM     22  C26 <0> d   1       5.508   4.558  -7.536  0.00  0.00     0.002 A 
ATOM     23  C25 <0> d   1       4.651   4.331  -6.478  0.00  0.00     0.029 A 
ENDBRANCH  14  18
ENDBRANCH  10  11
ENDBRANCH   9  10
ENDBRANCH   8   9
ENDBRANCH   3   8
BRANCH   7  24
ATOM     24  O1  <0> d   1       1.611   0.469   3.865  0.00  0.00    -0.359 OA
ATOM     25  H7  <0> d   1       0.847   0.659   4.427  0.00  0.00     0.217 HD
ENDBRANCH   7  24
BRANCH   6  26
ATOM     26  C8  <0> d   1       1.238  -2.329   3.734  0.00  0.00     0.075 A 
ATOM     27  N2  <0> d   1       0.251  -3.058   4.327  0.00  0.00    -0.277 N 
ATOM     28  N1  <0> d   1       0.809  -3.740   5.415  0.00  0.00    -0.186 NA
ATOM     29  H1  <0> d   1      -0.676  -3.099   4.044  0.00  0.00     0.189 HD
ATOM     30  C10 <0> d   1       2.079  -3.443   5.500  0.00  0.00     0.153 A 
ATOM     31  C9  <0> d   1       2.401  -2.554   4.459  0.00  0.00     0.022 A 
BRANCH  31  32
ATOM     32  C11 <0> d   1       3.734  -1.966   4.187  0.00  0.00    -0.022 A 
ATOM     33  C16 <0> d   1       4.433  -1.317   5.205  0.00  0.00     0.015 A 
ATOM     34  C15 <0> d   1       5.676  -0.777   4.950  0.00  0.00     0.037 A 
ATOM     35  C14 <0> d   1       6.226  -0.867   3.679  0.00  0.00     0.068 A 
ATOM     36  C13 <0> d   1       5.531  -1.506   2.662  0.00  0.00     0.037 A 
ATOM     37  C12 <0> d   1       4.290  -2.054   2.912  0.00  0.00     0.015 A 
BRANCH  35  38
ATOM     38  O2  <0> d   1       7.449  -0.328   3.430  0.00  0.00    -0.356 OA
ATOM     39  C17 <0> d   1       8.110   0.315   4.522  0.00  0.00     0.210 C 
ENDBRANCH  35  38
ENDBRANCH  31  32
ENDBRANCH   6  26
TORSDOF 9
