REMARK  7 active torsions:
REMARK  status: ('A' for Active; 'I' for Inactive)
REMARK    1  A    between atoms: C4_4  and  C7_7 
REMARK    2  A    between atoms: C9_12  and  C10_13 
REMARK    3  A    between atoms: C13_16  and  O2_20 
REMARK    4  A    between atoms: O2_20  and  C16_21 
REMARK    5  A    between atoms: C16_21  and  C17_22 
REMARK    6  A    between atoms: C17_22  and  N3_23 
REMARK    7  A    between atoms: N4_26  and  C22_29 
ROOT
ATOM      1  C10 <0> d   1       2.695  -1.772   1.883  0.00  0.00     0.032 A 
ATOM      2  C11 <0> d   1       1.348  -1.465   2.062  0.00  0.00     0.019 A 
ATOM      3  C12 <0> d   1       0.654  -1.997   3.128  0.00  0.00     0.038 A 
ATOM      4  C13 <0> d   1       1.296  -2.841   4.027  0.00  0.00     0.071 A 
ATOM      5  C14 <0> d   1       2.636  -3.151   3.856  0.00  0.00     0.077 A 
ATOM      6  C15 <0> d   1       3.338  -2.627   2.785  0.00  0.00     0.122 A 
ATOM      7  O1  <0> d   1       4.650  -2.935   2.613  0.00  0.00    -0.191 OA
ENDROOT
BRANCH   4   8
ATOM      8  O2  <0> d   1       0.607  -3.362   5.076  0.00  0.00    -0.349 OA
BRANCH   8   9
ATOM      9  C16 <0> d   1       1.327  -4.221   5.961  0.00  0.00     0.203 C 
BRANCH   9  10
ATOM     10  C17 <0> d   1       0.394  -4.707   7.072  0.00  0.00     0.261 C 
BRANCH  10  11
ATOM     11  N3  <0> d   1      -0.683  -5.518   6.487  0.00  0.00    -0.066 N 
ATOM     12  C21 <0> d   1      -0.114  -6.746   5.918  0.00  0.00     0.254 C 
ATOM     13  C20 <0> d   1      -1.217  -7.538   5.207  0.00  0.00     0.150 C 
ATOM     14  N4  <0> d   1      -2.316  -7.762   6.159  0.00  0.00    -0.378 N 
ATOM     15  C19 <0> d   1      -2.840  -6.603   6.898  0.00  0.00     0.150 C 
ATOM     16  C18 <0> d   1      -1.660  -5.856   7.529  0.00  0.00     0.254 C 
ATOM     17  H28 <0> d   1      -1.140  -4.992   5.758  0.00  0.00     0.280 HD
BRANCH  14  18
ATOM     18  C22 <0> d   1      -2.848  -9.039   6.354  0.00  0.00     0.030 A 
ATOM     19  C27 <0> d   1      -2.264 -10.138   5.737  0.00  0.00     0.029 A 
ATOM     20  C26 <0> d   1      -2.789 -11.399   5.936  0.00  0.00     0.002 A 
ATOM     21  C25 <0> d   1      -3.902 -11.568   6.739  0.00  0.00     0.000 A 
ATOM     22  C24 <0> d   1      -4.490 -10.475   7.350  0.00  0.00     0.002 A 
ATOM     23  C23 <0> d   1      -3.966  -9.211   7.160  0.00  0.00     0.029 A 
ENDBRANCH  14  18
ENDBRANCH  10  11
ENDBRANCH   9  10
ENDBRANCH   8   9
ENDBRANCH   4   8
BRANCH   1  24
ATOM     24  C9  <0> d   1       3.443  -1.201   0.738  0.00  0.00     0.102 A 
ATOM     25  C7  <0> d   1       3.007  -1.168  -0.611  0.00  0.00     0.022 A 
ATOM     26  C8  <0> d   1       3.981  -0.555  -1.341  0.00  0.00     0.124 A 
ATOM     27  N1  <0> d   1       4.982  -0.225  -0.500  0.00  0.00    -0.288 N 
ATOM     28  H1  <0> d   1       5.806   0.224  -0.747  0.00  0.00     0.188 HD
ATOM     29  N2  <0> d   1       4.630  -0.638   0.791  0.00  0.00    -0.174 NA
BRANCH  25  30
ATOM     30  C4  <0> d   1       1.723  -1.697  -1.132  0.00  0.00    -0.022 A 
ATOM     31  C3  <0> d   1       0.858  -0.864  -1.839  0.00  0.00     0.012 A 
ATOM     32  C2  <0> d   1      -0.336  -1.362  -2.321  0.00  0.00     0.001 A 
ATOM     33  C1  <0> d   1      -0.674  -2.686  -2.104  0.00  0.00     0.000 A 
ATOM     34  C6  <0> d   1       0.181  -3.517  -1.403  0.00  0.00     0.001 A 
ATOM     35  C5  <0> d   1       1.377  -3.030  -0.916  0.00  0.00     0.012 A 
ENDBRANCH  25  30
ENDBRANCH   1  24
TORSDOF 7
