REMARK  7 active torsions:
REMARK  status: ('A' for Active; 'I' for Inactive)
REMARK    1  A    between atoms: C4_4  and  O6_33 
REMARK    2  A    between atoms: C5_5  and  C20_25 
REMARK    3  A    between atoms: C10_11  and  C11_12 
REMARK    4  A    between atoms: C14_15  and  O4_22 
REMARK    5  A    between atoms: C15_16  and  O3_20 
REMARK    6  A    between atoms: C16_17  and  O2_18 
REMARK    7  A    between atoms: C20_25  and  N1_26 
ROOT
ATOM      1  C1  <0> d   1      -0.699   1.601   0.141  0.00  0.00     0.049 C 
ATOM      2  C2  <0> d   1      -0.777   0.096   0.115  0.00  0.00    -0.042 A 
ATOM      3  C3  <0> d   1      -1.040  -0.556  -1.057  0.00  0.00     0.045 A 
ATOM      4  C4  <0> d   1      -1.112  -1.946  -1.083  0.00  0.00     0.077 A 
ATOM      5  C5  <0> d   1      -0.920  -2.683   0.073  0.00  0.00     0.038 A 
ATOM      6  C6  <0> d   1      -0.652  -2.037   1.273  0.00  0.00     0.102 A 
ATOM      7  C7  <0> d   1      -0.576  -0.634   1.286  0.00  0.00     0.057 A 
ATOM      8  C8  <0> d   1      -0.277  -0.247   2.677  0.00  0.00     0.219 A 
ATOM      9  O1  <0> d   1      -0.133   0.878   3.124  0.00  0.00    -0.284 OA
ATOM     10  C9  <0> d   1      -0.191  -1.520   3.404  0.00  0.00     0.128 A 
ATOM     11  C10 <0> d   1       0.068  -1.672   4.729  0.00  0.00     0.055 C 
ATOM     12  O5  <0> d   1      -0.430  -2.515   2.517  0.00  0.00    -0.305 OA
ENDROOT
BRANCH  11  13
ATOM     13  C11 <0> d   1      -0.018  -2.998   5.346  0.00  0.00     0.003 A 
ATOM     14  C16 <0> d   1      -0.104  -3.123   6.743  0.00  0.00     0.114 A 
ATOM     15  C15 <0> d   1      -0.191  -4.383   7.316  0.00  0.00     0.136 A 
ATOM     16  C14 <0> d   1      -0.181  -5.516   6.510  0.00  0.00     0.104 A 
ATOM     17  C13 <0> d   1      -0.090  -5.393   5.127  0.00  0.00     0.040 A 
ATOM     18  C12 <0> d   1      -0.009  -4.149   4.545  0.00  0.00     0.017 A 
BRANCH  14  19
ATOM     19  O2  <0> d   1      -0.108  -2.015   7.528  0.00  0.00    -0.352 OA
ATOM     20  C17 <0> d   1      -1.380  -1.438   7.829  0.00  0.00     0.210 C 
ENDBRANCH  14  19
BRANCH  15  21
ATOM     21  O3  <0> d   1      -0.281  -4.511   8.668  0.00  0.00    -0.351 OA
ATOM     22  C18 <0> d   1       0.947  -4.618   9.393  0.00  0.00     0.210 C 
ENDBRANCH  15  21
BRANCH  16  23
ATOM     23  O4  <0> d   1      -0.261  -6.749   7.074  0.00  0.00    -0.353 OA
ATOM     24  C19 <0> d   1      -0.246  -7.870   6.189  0.00  0.00     0.210 C 
ENDBRANCH  16  23
ENDBRANCH  11  13
BRANCH   5  25
ATOM     25  C20 <0> d   1      -1.002  -4.188   0.030  0.00  0.00     0.317 C 
BRANCH  25  26
ATOM     26  N1  <0> d   1       0.329  -4.743  -0.252  0.00  0.00     0.096 N 
ATOM     27  C24 <0> d   1       0.250  -6.182  -0.536  0.00  0.00     0.303 C 
ATOM     28  C23 <0> d   1       1.641  -6.705  -0.901  0.00  0.00     0.302 C 
ATOM     29  N2  <0> d   1       2.568  -6.440   0.208  0.00  0.00     0.087 N 
ATOM     30  C22 <0> d   1       2.647  -5.000   0.492  0.00  0.00     0.302 C 
ATOM     31  C25 <0> d   1       3.899  -6.995  -0.073  0.00  0.00     0.310 C 
ATOM     32  C21 <0> d   1       1.256  -4.478   0.858  0.00  0.00     0.303 C 
ENDBRANCH  25  26
ENDBRANCH   5  25
BRANCH   4  33
ATOM     33  O6  <0> d   1      -1.373  -2.584  -2.253  0.00  0.00    -0.360 OA
ATOM     34  H30 <0> d   1      -0.583  -2.810  -2.762  0.00  0.00     0.217 HD
ENDBRANCH   4  33
TORSDOF 7
