REMARK  7 active torsions:
REMARK  status: ('A' for Active; 'I' for Inactive)
REMARK    1  A    between atoms: N2_5  and  C6_8 
REMARK    2  A    between atoms: C6_8  and  C7_9 
REMARK    3  A    between atoms: C8_10  and  O4_35 
REMARK    4  A    between atoms: C9_11  and  C22_27 
REMARK    5  A    between atoms: C12_14  and  O1_15 
REMARK    6  A    between atoms: C15_19  and  C16_21 
REMARK    7  A    between atoms: C22_27  and  N3_28 
ROOT
ATOM      1  C7  <0> d   1      -3.086  -1.254   1.811  0.00  0.00     0.038 A 
ATOM      2  C8  <0> d   1      -1.805  -0.776   1.557  0.00  0.00     0.087 A 
ATOM      3  C9  <0> d   1      -1.388  -0.527   0.259  0.00  0.00     0.039 A 
ATOM      4  C10 <0> d   1      -2.247  -0.763  -0.803  0.00  0.00     0.103 A 
ATOM      5  C11 <0> d   1      -3.540  -1.251  -0.550  0.00  0.00     0.082 A 
ATOM      6  C12 <0> d   1      -3.957  -1.496   0.765  0.00  0.00     0.093 A 
ATOM      7  C13 <0> d   1      -4.435  -1.495  -1.694  0.00  0.00     0.190 A 
ATOM      8  O2  <0> d   1      -5.568  -1.918  -1.534  0.00  0.00    -0.287 OA
ATOM      9  C14 <0> d   1      -3.928  -1.220  -2.987  0.00  0.00     0.094 A 
ATOM     10  C15 <0> d   1      -2.660  -0.750  -3.124  0.00  0.00     0.090 A 
ATOM     11  O3  <0> d   1      -1.854  -0.532  -2.074  0.00  0.00    -0.308 OA
ENDROOT
BRANCH   1  12
ATOM     12  C6  <0> d   1      -3.525  -1.514   3.229  0.00  0.00     0.317 C 
BRANCH  12  13
ATOM     13  N2  <0> d   1      -3.195  -2.897   3.598  0.00  0.00     0.096 N 
ATOM     14  C3  <0> d   1      -3.388  -3.119   5.037  0.00  0.00     0.300 C 
ATOM     15  C2  <0> d   1      -2.960  -4.545   5.393  0.00  0.00     0.264 C 
ATOM     16  N1  <0> d   1      -3.749  -5.502   4.605  0.00  0.00    -0.072 N 
ATOM     17  C1  <0> d   1      -3.420  -6.885   4.974  0.00  0.00     0.269 C 
ATOM     18  C5  <0> d   1      -3.556  -5.280   3.166  0.00  0.00     0.264 C 
ATOM     19  H35 <0> d   1      -4.812  -5.336   4.835  0.00  0.00     0.279 HD
ATOM     20  C4  <0> d   1      -3.985  -3.854   2.810  0.00  0.00     0.300 C 
ENDBRANCH  12  13
ENDBRANCH   1  12
BRANCH   6  21
ATOM     21  O1  <0> d   1      -5.206  -1.966   1.010  0.00  0.00    -0.359 OA
ATOM     22  H14 <0> d   1      -5.896  -2.157   0.174  0.00  0.00     0.217 HD
ENDBRANCH   6  21
BRANCH   2  23
ATOM     23  O4  <0> d   1      -0.956  -0.547   2.592  0.00  0.00    -0.359 OA
ATOM     24  H34 <0> d   1       0.059  -0.169   2.397  0.00  0.00     0.217 HD
ENDBRANCH   2  23
BRANCH   3  25
ATOM     25  C22 <0> d   1       0.002  -0.004   0.002  0.00  0.00     0.317 C 
BRANCH  25  26
ATOM     26  N3  <0> d   1      -0.018   1.465   0.010  0.00  0.00     0.096 N 
ATOM     27  C26 <0> d   1       1.347   2.010  -0.000  0.00  0.00     0.303 C 
ATOM     28  C25 <0> d   1       1.284   3.537   0.089  0.00  0.00     0.302 C 
ATOM     29  N4  <0> d   1       0.503   4.059  -1.041  0.00  0.00     0.087 N 
ATOM     30  C24 <0> d   1      -0.862   3.514  -1.031  0.00  0.00     0.302 C 
ATOM     31  C27 <0> d   1       0.483   5.528  -1.033  0.00  0.00     0.310 C 
ATOM     32  C23 <0> d   1      -0.799   1.987  -1.120  0.00  0.00     0.303 C 
ENDBRANCH  25  26
ENDBRANCH   3  25
BRANCH  10  33
ATOM     33  C16 <0> d   1      -2.150  -0.469  -4.481  0.00  0.00    -0.002 A 
ATOM     34  C21 <0> d   1      -0.851   0.015  -4.656  0.00  0.00     0.014 A 
ATOM     35  C20 <0> d   1      -0.381   0.275  -5.926  0.00  0.00     0.001 A 
ATOM     36  C19 <0> d   1      -1.193   0.059  -7.026  0.00  0.00     0.000 A 
ATOM     37  C18 <0> d   1      -2.480  -0.420  -6.860  0.00  0.00     0.001 A 
ATOM     38  C17 <0> d   1      -2.961  -0.691  -5.596  0.00  0.00     0.014 A 
ENDBRANCH  10  33
TORSDOF 7
