REMARK  3 active torsions:
REMARK  status: ('A' for Active; 'I' for Inactive)
REMARK    1  A    between atoms: N1_6  and  C7_8 
REMARK    2  A    between atoms: C7_8  and  C8_9 
REMARK    3  A    between atoms: C15_17  and  C17_20 
ROOT
ATOM      1  C8  <0> d   1       2.479   3.702  -0.003  0.00  0.00     0.039 A 
ATOM      2  C9  <0> d   1       2.554   5.085   0.002  0.00  0.00     0.118 A 
ATOM      3  C10 <0> d   1       1.396   5.858   0.016  0.00  0.00     0.041 A 
ATOM      4  C11 <0> d   1       0.168   5.260   0.026  0.00  0.00     0.021 A 
ATOM      5  C12 <0> d   1       0.075   3.868   0.021  0.00  0.00     0.050 A 
ATOM      6  C13 <0> d   1       1.238   3.078   0.006  0.00  0.00     0.100 A 
ATOM      7  O1  <0> d   1       1.148   1.733   0.000  0.00  0.00    -0.320 OA
ATOM      8  C14 <0> d   1      -0.013   1.076   0.008  0.00  0.00     0.161 A 
ATOM      9  C15 <0> d   1      -1.216   1.714   0.017  0.00  0.00     0.073 A 
ATOM     10  C16 <0> d   1      -1.233   3.189   0.031  0.00  0.00     0.199 A 
ATOM     11  O2  <0> d   1      -2.278   3.815   0.044  0.00  0.00    -0.286 OA
ATOM     12  O3  <0> d   1       3.768   5.692  -0.007  0.00  0.00    -0.191 OA
ENDROOT
BRANCH   1  13
ATOM     13  C7  <0> d   1       3.739   2.876  -0.020  0.00  0.00     0.279 C 
BRANCH  13  14
ATOM     14  N1  <0> d   1       4.135   2.615  -1.410  0.00  0.00    -0.067 N 
ATOM     15  C5  <0> d   1       4.058   3.838  -2.218  0.00  0.00     0.235 C 
ATOM     16  C4  <0> d   1       4.335   3.500  -3.685  0.00  0.00     0.028 C 
ATOM     17  C3  <0> d   1       5.726   2.874  -3.806  0.00  0.00     0.007 C 
ATOM     18  C2  <0> d   1       5.796   1.629  -2.917  0.00  0.00     0.007 C 
ATOM     19  C1  <0> d   1       7.202   1.030  -2.985  0.00  0.00     0.011 C 
ATOM     20  C6  <0> d   1       5.477   2.021  -1.472  0.00  0.00     0.239 C 
ATOM     21  H22 <0> d   1       3.426   1.888  -1.834  0.00  0.00     0.280 HD
ENDBRANCH  13  14
ENDBRANCH   1  13
BRANCH   9  22
ATOM     22  C17 <0> d   1      -2.476   0.946   0.019  0.00  0.00     0.115 A 
ATOM     23  S1  <0> d   1      -4.158   1.551   0.038  0.00  0.00    -0.067 SA
ATOM     24  C23 <0> d   1      -4.964  -0.032   0.027  0.00  0.00     0.035 A 
ATOM     25  C18 <0> d   1      -3.869  -0.928   0.016  0.00  0.00     0.075 A 
ATOM     26  C22 <0> d   1      -6.269  -0.459   0.032  0.00  0.00     0.021 A 
ATOM     27  N2  <0> d   1      -2.647  -0.359   0.013  0.00  0.00    -0.239 NA
ATOM     28  C19 <0> d   1      -4.191  -2.306   0.011  0.00  0.00     0.033 A 
ATOM     29  C20 <0> d   1      -5.487  -2.719   0.015  0.00  0.00     0.002 A 
ATOM     30  C21 <0> d   1      -6.540  -1.815   0.026  0.00  0.00     0.002 A 
ENDBRANCH   9  22
TORSDOF 3
