REMARK  6 active torsions:
REMARK  status: ('A' for Active; 'I' for Inactive)
REMARK    1  A    between atoms: N2_5  and  C6_8 
REMARK    2  A    between atoms: C6_8  and  C7_9 
REMARK    3  A    between atoms: C8_10  and  O5_30 
REMARK    4  A    between atoms: C14_17  and  C15_18 
REMARK    5  A    between atoms: C18_21  and  O3_26 
REMARK    6  A    between atoms: C20_23  and  O2_24 
ROOT
ATOM      1  C7  <0> d   1       0.109  -3.764   2.718  0.00  0.00     0.036 A 
ATOM      2  C8  <0> d   1       1.479  -3.790   2.925  0.00  0.00     0.076 A 
ATOM      3  C9  <0> d   1       2.009  -4.348   4.085  0.00  0.00     0.038 A 
ATOM      4  C10 <0> d   1       1.180  -4.878   5.033  0.00  0.00     0.021 A 
ATOM      5  C11 <0> d   1      -0.201  -4.859   4.838  0.00  0.00     0.051 A 
ATOM      6  C12 <0> d   1      -0.748  -4.293   3.675  0.00  0.00     0.101 A 
ATOM      7  O1  <0> d   1      -2.095  -4.385   3.715  0.00  0.00    -0.305 OA
ATOM      8  C13 <0> d   1      -2.525  -4.982   4.851  0.00  0.00     0.128 A 
ATOM      9  C14 <0> d   1      -3.819  -5.223   5.191  0.00  0.00     0.055 C 
ATOM     10  C23 <0> d   1      -1.340  -5.335   5.643  0.00  0.00     0.218 A 
ATOM     11  O4  <0> d   1      -1.307  -5.887   6.730  0.00  0.00    -0.284 OA
ENDROOT
BRANCH   9  12
ATOM     12  C15 <0> d   1      -4.905  -4.686   4.368  0.00  0.00     0.000 A 
ATOM     13  C20 <0> d   1      -6.214  -4.620   4.880  0.00  0.00     0.081 A 
ATOM     14  C19 <0> d   1      -7.230  -4.106   4.094  0.00  0.00     0.074 A 
ATOM     15  C18 <0> d   1      -6.955  -3.667   2.806  0.00  0.00     0.070 A 
ATOM     16  C17 <0> d   1      -5.660  -3.739   2.300  0.00  0.00     0.038 A 
ATOM     17  C16 <0> d   1      -4.647  -4.239   3.065  0.00  0.00     0.017 A 
BRANCH  13  18
ATOM     18  O2  <0> d   1      -6.478  -5.055   6.138  0.00  0.00    -0.355 OA
ATOM     19  C21 <0> d   1      -7.830  -4.957   6.588  0.00  0.00     0.210 C 
ENDBRANCH  13  18
BRANCH  15  20
ATOM     20  O3  <0> d   1      -7.955  -3.167   2.036  0.00  0.00    -0.356 OA
ATOM     21  C22 <0> d   1      -7.604  -2.733   0.720  0.00  0.00     0.210 C 
ENDBRANCH  15  20
ENDBRANCH   9  12
BRANCH   1  22
ATOM     22  C6  <0> d   1      -0.451  -3.156   1.458  0.00  0.00     0.279 C 
BRANCH  22  23
ATOM     23  N2  <0> d   1      -0.698  -1.724   1.673  0.00  0.00    -0.064 N 
ATOM     24  C3  <0> d   1      -1.354  -1.157   0.487  0.00  0.00     0.265 C 
ATOM     25  C2  <0> d   1      -1.629   0.330   0.718  0.00  0.00     0.299 C 
ATOM     26  N1  <0> d   1      -0.360   1.025   0.977  0.00  0.00     0.087 N 
ATOM     27  C1  <0> d   1      -0.576   2.468   1.148  0.00  0.00     0.310 C 
ATOM     28  C5  <0> d   1       0.320   0.452   2.147  0.00  0.00     0.299 C 
ATOM     29  C4  <0> d   1       0.579  -1.036   1.904  0.00  0.00     0.265 C 
ATOM     30  H27 <0> d   1      -1.295  -1.604   2.477  0.00  0.00     0.280 HD
ENDBRANCH  22  23
ENDBRANCH   1  22
BRANCH   2  31
ATOM     31  O5  <0> d   1       2.311  -3.266   1.989  0.00  0.00    -0.360 OA
ATOM     32  H26 <0> d   1       2.507  -2.328   2.117  0.00  0.00     0.217 HD
ENDBRANCH   2  31
TORSDOF 6
