REMARK  7 active torsions:
REMARK  status: ('A' for Active; 'I' for Inactive)
REMARK    1  A    between atoms: C3_3  and  C15_20 
REMARK    2  A    between atoms: C4_4  and  C5_8 
REMARK    3  A    between atoms: C8_11  and  O2_15 
REMARK    4  A    between atoms: O2_15  and  C11_16 
REMARK    5  A    between atoms: C11_16  and  C12_17 
REMARK    6  A    between atoms: C18_23  and  O4_28 
REMARK    7  A    between atoms: C19_24  and  O3_26 
ROOT
ATOM      1  C1  <0> d   1       0.212   1.496   0.014  0.00  0.00     0.070 C 
ATOM      2  C2  <0> d   1       0.101  -0.007   0.004  0.00  0.00     0.037 A 
ATOM      3  C3  <0> d   1      -0.029  -0.810   1.097  0.00  0.00     0.029 A 
ATOM      4  C4  <0> d   1      -0.099  -2.149   0.637  0.00  0.00     0.103 A 
ATOM      5  N1  <0> d   1      -0.014  -2.128  -0.676  0.00  0.00    -0.173 NA
ATOM      6  H1  <0> d   1       0.183  -0.493  -2.009  0.00  0.00     0.189 HD
ATOM      7  N2  <0> d   1       0.106  -0.797  -1.090  0.00  0.00    -0.281 N 
ENDROOT
BRANCH   4   8
ATOM      8  C5  <0> d   1      -0.243  -3.357   1.484  0.00  0.00     0.032 A 
ATOM      9  C10 <0> d   1       0.580  -4.467   1.267  0.00  0.00     0.122 A 
ATOM     10  C9  <0> d   1       0.444  -5.591   2.065  0.00  0.00     0.077 A 
ATOM     11  O1  <0> d   1       1.513  -4.441   0.280  0.00  0.00    -0.191 OA
ATOM     12  C8  <0> d   1      -0.513  -5.618   3.068  0.00  0.00     0.071 A 
ATOM     13  C7  <0> d   1      -1.334  -4.517   3.280  0.00  0.00     0.038 A 
ATOM     14  C6  <0> d   1      -1.202  -3.392   2.494  0.00  0.00     0.019 A 
BRANCH  12  15
ATOM     15  O2  <0> d   1      -0.648  -6.723   3.846  0.00  0.00    -0.347 OA
BRANCH  15  16
ATOM     16  C11 <0> d   1       0.228  -7.819   3.574  0.00  0.00     0.208 C 
BRANCH  16  17
ATOM     17  C12 <0> d   1      -0.066  -8.946   4.530  0.00  0.00    -0.069 C 
ATOM     18  C13 <0> d   1      -1.010  -8.814   5.428  0.00  0.00     0.016 C 
ATOM     19  C14 <0> d   1       0.726 -10.226   4.452  0.00  0.00     0.044 C 
ENDBRANCH  16  17
ENDBRANCH  15  16
ENDBRANCH  12  15
ENDBRANCH   4   8
BRANCH   3  20
ATOM     20  C15 <0> d   1      -0.086  -0.364   2.511  0.00  0.00    -0.019 A 
ATOM     21  C20 <0> d   1      -1.174   0.380   2.965  0.00  0.00     0.052 A 
ATOM     22  C19 <0> d   1      -1.226   0.789   4.286  0.00  0.00     0.102 A 
ATOM     23  C18 <0> d   1      -0.187   0.466   5.155  0.00  0.00     0.101 A 
ATOM     24  C17 <0> d   1       0.897  -0.269   4.701  0.00  0.00     0.040 A 
ATOM     25  C16 <0> d   1       0.951  -0.683   3.386  0.00  0.00     0.015 A 
BRANCH  22  26
ATOM     26  O3  <0> d   1      -2.288   1.510   4.733  0.00  0.00    -0.353 OA
ATOM     27  C21 <0> d   1      -3.317   1.804   3.786  0.00  0.00     0.210 C 
ENDBRANCH  22  26
BRANCH  23  28
ATOM     28  O4  <0> d   1      -0.237   0.873   6.452  0.00  0.00    -0.353 OA
ATOM     29  C22 <0> d   1       0.862   0.506   7.290  0.00  0.00     0.210 C 
ENDBRANCH  23  28
ENDBRANCH   3  20
TORSDOF 7
