REMARK  5 active torsions:
REMARK  status: ('A' for Active; 'I' for Inactive)
REMARK    1  A    between atoms: C2_2  and  C5_5 
REMARK    2  A    between atoms: C11_11  and  C14_16 
REMARK    3  A    between atoms: C14_16  and  N1_17 
REMARK    4  A    between atoms: N2_20  and  C19_23 
REMARK    5  A    between atoms: C19_23  and  C20_24 
ROOT
ATOM      1  C5  <0> d   1      -0.706  -5.178   1.698  0.00  0.00    -0.050 A 
ATOM      2  C6  <0> d   1      -1.990  -4.655   1.750  0.00  0.00     0.011 A 
ATOM      3  C7  <0> d   1      -2.260  -3.399   1.248  0.00  0.00     0.039 A 
ATOM      4  C8  <0> d   1      -1.237  -2.647   0.685  0.00  0.00     0.090 A 
ATOM      5  C9  <0> d   1       0.063  -3.179   0.635  0.00  0.00     0.007 A 
ATOM      6  C10 <0> d   1       0.315  -4.455   1.149  0.00  0.00     0.022 A 
ATOM      7  C11 <0> d   1       1.137  -2.378   0.039  0.00  0.00    -0.011 A 
ATOM      8  C12 <0> d   1       0.827  -1.147  -0.442  0.00  0.00     0.092 A 
ATOM      9  C13 <0> d   1      -0.501  -0.675  -0.358  0.00  0.00     0.288 A 
ATOM     10  O1  <0> d   1      -0.766   0.430  -0.793  0.00  0.00    -0.260 OA
ATOM     11  O2  <0> d   1      -1.478  -1.415   0.188  0.00  0.00    -0.275 OA
ENDROOT
BRANCH   7  12
ATOM     12  C14 <0> d   1       2.546  -2.907  -0.037  0.00  0.00     0.312 C 
BRANCH  12  13
ATOM     13  N1  <0> d   1       3.162  -2.853   1.295  0.00  0.00     0.096 N 
ATOM     14  C18 <0> d   1       4.372  -3.687   1.350  0.00  0.00     0.303 C 
ATOM     15  C17 <0> d   1       4.937  -3.667   2.772  0.00  0.00     0.303 C 
ATOM     16  N2  <0> d   1       5.238  -2.282   3.158  0.00  0.00     0.096 N 
ATOM     17  C16 <0> d   1       4.029  -1.448   3.103  0.00  0.00     0.303 C 
ATOM     18  C15 <0> d   1       3.463  -1.468   1.681  0.00  0.00     0.303 C 
BRANCH  16  19
ATOM     19  C19 <0> d   1       5.854  -2.228   4.491  0.00  0.00     0.311 C 
BRANCH  19  20
ATOM     20  C20 <0> d   1       5.923  -0.796   4.955  0.00  0.00    -0.030 A 
ATOM     21  C25 <0> d   1       4.874  -0.251   5.672  0.00  0.00     0.009 A 
ATOM     22  C24 <0> d   1       4.938   1.062   6.099  0.00  0.00     0.001 A 
ATOM     23  C23 <0> d   1       6.049   1.831   5.808  0.00  0.00     0.000 A 
ATOM     24  C22 <0> d   1       7.098   1.285   5.091  0.00  0.00     0.001 A 
ATOM     25  C21 <0> d   1       7.037  -0.030   4.669  0.00  0.00     0.009 A 
ENDBRANCH  19  20
ENDBRANCH  16  19
ENDBRANCH  12  13
ENDBRANCH   7  12
BRANCH   1  26
ATOM     26  C2  <0> d   1      -0.435  -6.553   2.252  0.00  0.00    -0.024 C 
ATOM     27  C1  <0> d   1       0.599  -6.455   3.376  0.00  0.00     0.019 C 
ATOM     28  C3  <0> d   1      -1.733  -7.145   2.804  0.00  0.00     0.019 C 
ATOM     29  C4  <0> d   1       0.104  -7.454   1.139  0.00  0.00     0.019 C 
ENDBRANCH   1  26
TORSDOF 5
