REMARK  7 active torsions:
REMARK  status: ('A' for Active; 'I' for Inactive)
REMARK    1  A    between atoms: C3_3  and  C23_30 
REMARK    2  A    between atoms: C4_4  and  C5_8 
REMARK    3  A    between atoms: C8_11  and  O2_15 
REMARK    4  A    between atoms: O2_15  and  C11_16 
REMARK    5  A    between atoms: C11_16  and  C12_17 
REMARK    6  A    between atoms: C12_17  and  N3_18 
REMARK    7  A    between atoms: N4_21  and  C17_24 
ROOT
ATOM      1  C5  <0> d   1       0.258  -2.628   2.017  0.00  0.00     0.032 A 
ATOM      2  C6  <0> d   1      -0.066  -2.489   3.365  0.00  0.00     0.019 A 
ATOM      3  C7  <0> d   1      -0.148  -3.604   4.172  0.00  0.00     0.038 A 
ATOM      4  C8  <0> d   1       0.090  -4.867   3.644  0.00  0.00     0.071 A 
ATOM      5  C9  <0> d   1       0.413  -5.014   2.304  0.00  0.00     0.077 A 
ATOM      6  C10 <0> d   1       0.493  -3.900   1.485  0.00  0.00     0.122 A 
ATOM      7  O1  <0> d   1       0.803  -4.042   0.170  0.00  0.00    -0.191 OA
ENDROOT
BRANCH   4   8
ATOM      8  O2  <0> d   1       0.007  -5.962   4.445  0.00  0.00    -0.349 OA
BRANCH   8   9
ATOM      9  C11 <0> d   1       0.265  -7.230   3.838  0.00  0.00     0.203 C 
BRANCH   9  10
ATOM     10  C12 <0> d   1       0.126  -8.335   4.887  0.00  0.00     0.261 C 
BRANCH  10  11
ATOM     11  N3  <0> d   1      -1.262  -8.382   5.368  0.00  0.00    -0.066 N 
ATOM     12  C16 <0> d   1      -2.144  -8.799   4.270  0.00  0.00     0.254 C 
ATOM     13  C15 <0> d   1      -3.602  -8.738   4.737  0.00  0.00     0.150 C 
ATOM     14  N4  <0> d   1      -3.734  -9.544   5.961  0.00  0.00    -0.378 N 
ATOM     15  C14 <0> d   1      -2.780  -9.303   7.055  0.00  0.00     0.150 C 
ATOM     16  C13 <0> d   1      -1.361  -9.337   6.479  0.00  0.00     0.254 C 
ATOM     17  H30 <0> d   1      -1.536  -7.466   5.689  0.00  0.00     0.280 HD
BRANCH  14  18
ATOM     18  C17 <0> d   1      -4.736 -10.509   6.081  0.00  0.00     0.030 A 
ATOM     19  C22 <0> d   1      -5.550 -10.806   4.996  0.00  0.00     0.029 A 
ATOM     20  C21 <0> d   1      -6.536 -11.765   5.117  0.00  0.00     0.002 A 
ATOM     21  C20 <0> d   1      -6.721 -12.422   6.320  0.00  0.00     0.000 A 
ATOM     22  C19 <0> d   1      -5.916 -12.124   7.404  0.00  0.00     0.002 A 
ATOM     23  C18 <0> d   1      -4.924 -11.171   7.288  0.00  0.00     0.029 A 
ENDBRANCH  14  18
ENDBRANCH  10  11
ENDBRANCH   9  10
ENDBRANCH   8   9
ENDBRANCH   4   8
BRANCH   1  24
ATOM     24  C4  <0> d   1       0.347  -1.431   1.147  0.00  0.00     0.103 A 
ATOM     25  C3  <0> d   1       1.034  -0.228   1.449  0.00  0.00     0.029 A 
ATOM     26  C2  <0> d   1       0.871   0.614   0.390  0.00  0.00     0.037 A 
ATOM     27  C1  <0> d   1       1.429   2.009   0.271  0.00  0.00     0.070 C 
ATOM     28  N2  <0> d   1       0.115  -0.020  -0.529  0.00  0.00    -0.281 N 
ATOM     29  N1  <0> d   1      -0.197  -1.295  -0.043  0.00  0.00    -0.173 NA
ATOM     30  H1  <0> d   1      -0.164   0.345  -1.384  0.00  0.00     0.189 HD
BRANCH  25  31
ATOM     31  C23 <0> d   1       1.794   0.061   2.690  0.00  0.00    -0.022 A 
ATOM     32  C28 <0> d   1       1.347   1.045   3.570  0.00  0.00     0.012 A 
ATOM     33  C27 <0> d   1       2.053   1.304   4.727  0.00  0.00     0.001 A 
ATOM     34  C26 <0> d   1       3.210   0.599   5.008  0.00  0.00     0.000 A 
ATOM     35  C25 <0> d   1       3.661  -0.374   4.135  0.00  0.00     0.001 A 
ATOM     36  C24 <0> d   1       2.959  -0.647   2.978  0.00  0.00     0.012 A 
ENDBRANCH  25  31
ENDBRANCH   1  24
TORSDOF 7
