REMARK  6 active torsions:
REMARK  status: ('A' for Active; 'I' for Inactive)
REMARK    1  A    between atoms: C2_2  and  N1_3 
REMARK    2  A    between atoms: N2_6  and  C7_9 
REMARK    3  A    between atoms: C7_9  and  C8_10 
REMARK    4  A    between atoms: C9_11  and  O4_30 
REMARK    5  A    between atoms: C15_19  and  C18_22 
REMARK    6  A    between atoms: C21_25  and  O3_28 
ROOT
ATOM      1  C8  <0> d   1       3.239  -3.972  -3.942  0.00  0.00     0.035 A 
ATOM      2  C9  <0> d   1       4.264  -4.730  -3.398  0.00  0.00     0.076 A 
ATOM      3  C10 <0> d   1       4.227  -6.121  -3.466  0.00  0.00     0.038 A 
ATOM      4  C11 <0> d   1       3.187  -6.756  -4.079  0.00  0.00     0.017 A 
ATOM      5  C12 <0> d   1       2.152  -6.007  -4.656  0.00  0.00     0.006 A 
ATOM      6  C13 <0> d   1       2.169  -4.602  -4.557  0.00  0.00     0.101 A 
ATOM      7  O1  <0> d   1       1.136  -3.876  -5.049  0.00  0.00    -0.273 OA
ATOM      8  C14 <0> d   1       0.435  -4.428  -6.067  0.00  0.00     0.300 C 
ATOM      9  O2  <0> d   1       0.023  -3.747  -6.988  0.00  0.00    -0.259 OA
ATOM     10  C15 <0> d   1       0.188  -5.878  -6.023  0.00  0.00     0.057 C 
ATOM     11  C16 <0> d   1       1.080  -6.652  -5.326  0.00  0.00    -0.032 C 
ATOM     12  C17 <0> d   1       0.917  -8.149  -5.261  0.00  0.00     0.050 C 
ENDROOT
BRANCH   1  13
ATOM     13  C7  <0> d   1       3.284  -2.468  -3.858  0.00  0.00     0.279 C 
BRANCH  13  14
ATOM     14  N2  <0> d   1       2.630  -2.027  -2.620  0.00  0.00    -0.064 N 
ATOM     15  C4  <0> d   1       2.779  -0.572  -2.479  0.00  0.00     0.265 C 
ATOM     16  C3  <0> d   1       2.114  -0.114  -1.179  0.00  0.00     0.300 C 
ATOM     17  N1  <0> d   1       0.690  -0.478  -1.207  0.00  0.00     0.091 N 
ATOM     18  C6  <0> d   1       0.525  -1.929  -1.372  0.00  0.00     0.300 C 
ATOM     19  C5  <0> d   1       1.203  -2.372  -2.670  0.00  0.00     0.265 C 
ATOM     20  H29 <0> d   1       3.059  -2.486  -1.831  0.00  0.00     0.280 HD
BRANCH  17  21
ATOM     21  C2  <0> d   1       0.002  -0.004   0.002  0.00  0.00     0.268 C 
ATOM     22  C1  <0> d   1      -0.019   1.526   0.010  0.00  0.00     0.037 C 
ENDBRANCH  17  21
ENDBRANCH  13  14
ENDBRANCH   1  13
BRANCH   2  23
ATOM     23  O4  <0> d   1       5.313  -4.112  -2.796  0.00  0.00    -0.360 OA
ATOM     24  H28 <0> d   1       5.188  -3.959  -1.850  0.00  0.00     0.217 HD
ENDBRANCH   2  23
BRANCH  10  25
ATOM     25  C18 <0> d   1      -0.976  -6.480  -6.715  0.00  0.00    -0.019 A 
ATOM     26  C23 <0> d   1      -2.272  -6.172  -6.302  0.00  0.00     0.015 A 
ATOM     27  C22 <0> d   1      -3.352  -6.729  -6.953  0.00  0.00     0.037 A 
ATOM     28  C21 <0> d   1      -3.151  -7.606  -8.011  0.00  0.00     0.068 A 
ATOM     29  C20 <0> d   1      -1.862  -7.920  -8.421  0.00  0.00     0.037 A 
ATOM     30  C19 <0> d   1      -0.777  -7.361  -7.779  0.00  0.00     0.015 A 
BRANCH  28  31
ATOM     31  O3  <0> d   1      -4.218  -8.157  -8.646  0.00  0.00    -0.356 OA
ATOM     32  C24 <0> d   1      -5.515  -7.791  -8.173  0.00  0.00     0.210 C 
ENDBRANCH  28  31
ENDBRANCH  10  25
TORSDOF 6
