REMARK  6 active torsions:
REMARK  status: ('A' for Active; 'I' for Inactive)
REMARK    1  A    between atoms: C3_3  and  C15_20 
REMARK    2  A    between atoms: C4_4  and  C5_8 
REMARK    3  A    between atoms: C8_11  and  O2_15 
REMARK    4  A    between atoms: C10_13  and  O1_14 
REMARK    5  A    between atoms: O2_15  and  C11_16 
REMARK    6  A    between atoms: C11_16  and  C12_17 
ROOT
ATOM      1  C1  <0> d   1      -0.018   1.503   0.010  0.00  0.00     0.073 C 
ATOM      2  C2  <0> d   1       0.002  -0.004   0.002  0.00  0.00     0.064 A 
ATOM      3  C3  <0> d   1       0.008  -0.819  -1.144  0.00  0.00     0.029 A 
ATOM      4  C4  <0> d   1       0.028  -2.139  -0.712  0.00  0.00     0.076 A 
ATOM      5  N1  <0> d   1       0.034  -2.111   0.651  0.00  0.00    -0.276 N 
ATOM      6  H1  <0> d   1       0.047  -2.885   1.236  0.00  0.00     0.189 HD
ATOM      7  N2  <0> d   1       0.023  -0.772   1.058  0.00  0.00    -0.178 NA
ENDROOT
BRANCH   4   8
ATOM      8  C5  <0> d   1       0.040  -3.343  -1.566  0.00  0.00     0.026 A 
ATOM      9  C10 <0> d   1       1.138  -3.605  -2.396  0.00  0.00     0.081 A 
ATOM     10  C9  <0> d   1       1.144  -4.739  -3.191  0.00  0.00     0.074 A 
ATOM     11  C8  <0> d   1       0.061  -5.605  -3.172  0.00  0.00     0.071 A 
ATOM     12  C7  <0> d   1      -1.031  -5.344  -2.354  0.00  0.00     0.038 A 
ATOM     13  C6  <0> d   1      -1.045  -4.221  -1.554  0.00  0.00     0.019 A 
BRANCH   9  14
ATOM     14  O1  <0> d   1       2.195  -2.752  -2.418  0.00  0.00    -0.360 OA
ATOM     15  H8  <0> d   1       2.884  -2.963  -1.773  0.00  0.00     0.217 HD
ENDBRANCH   9  14
BRANCH  11  16
ATOM     16  O2  <0> d   1       0.069  -6.715  -3.957  0.00  0.00    -0.347 OA
BRANCH  16  17
ATOM     17  C11 <0> d   1      -1.077  -7.565  -3.889  0.00  0.00     0.208 C 
BRANCH  17  18
ATOM     18  C12 <0> d   1      -0.891  -8.735  -4.820  0.00  0.00    -0.069 C 
ATOM     19  C13 <0> d   1       0.206  -8.839  -5.530  0.00  0.00     0.016 C 
ATOM     20  C14 <0> d   1      -1.965  -9.786  -4.935  0.00  0.00     0.044 C 
ENDBRANCH  17  18
ENDBRANCH  16  17
ENDBRANCH  11  16
ENDBRANCH   4   8
BRANCH   3  21
ATOM     21  C15 <0> d   1      -0.005  -0.355  -2.552  0.00  0.00    -0.021 A 
ATOM     22  C20 <0> d   1       1.076   0.362  -3.063  0.00  0.00     0.014 A 
ATOM     23  C19 <0> d   1       1.061   0.786  -4.376  0.00  0.00     0.020 A 
ATOM     24  C18 <0> d   1      -0.030   0.511  -5.182  0.00  0.00     0.011 A 
ATOM     25  C17 <0> d   1      -1.108  -0.196  -4.679  0.00  0.00     0.020 A 
ATOM     26 Br1  <0> d   1      -0.046   1.102  -6.978  0.00  0.00    -0.051 Br
ATOM     27  C16 <0> d   1      -1.101  -0.630  -3.369  0.00  0.00     0.014 A 
ENDBRANCH   3  21
TORSDOF 6
