REMARK  4 active torsions:
REMARK  status: ('A' for Active; 'I' for Inactive)
REMARK    1  A    between atoms: C8_8  and  C11_13 
REMARK    2  A    between atoms: C11_13  and  N1_14 
REMARK    3  A    between atoms: N2_17  and  C16_20 
REMARK    4  A    between atoms: C16_20  and  C17_21 
ROOT
ATOM      1  C11 <0> d   1       0.051  -2.150   3.762  0.00  0.00     0.312 C 
ENDROOT
BRANCH   1   2
ATOM      2  C8  <0> d   1       0.053  -2.850   2.428  0.00  0.00    -0.011 A 
ATOM      3  C6  <0> d   1       0.037  -2.087   1.176  0.00  0.00     0.007 A 
ATOM      4  C5  <0> d   1       0.041  -2.781  -0.046  0.00  0.00     0.096 A 
ATOM      5  C7  <0> d   1       0.023  -0.689   1.185  0.00  0.00     0.021 A 
ATOM      6  C4  <0> d   1       0.025  -2.065  -1.236  0.00  0.00    -0.027 A 
ATOM      7  O2  <0> d   1       0.059  -4.131  -0.052  0.00  0.00    -0.274 OA
ATOM      8  C3  <0> d   1       0.006  -0.686  -1.206  0.00  0.00     0.016 A 
ATOM      9  C23 <0> d   1       0.028  -2.792  -2.556  0.00  0.00     0.051 C 
ATOM     10  C2  <0> d   1       0.002  -0.004   0.002  0.00  0.00    -0.060 A 
ATOM     11  C1  <0> d   1      -0.018   1.503   0.010  0.00  0.00     0.048 C 
ATOM     12  C10 <0> d   1       0.074  -4.837   1.089  0.00  0.00     0.288 A 
ATOM     13  C9  <0> d   1       0.072  -4.205   2.351  0.00  0.00     0.092 A 
ATOM     14  O1  <0> d   1       0.091  -6.053   1.034  0.00  0.00    -0.260 OA
ENDBRANCH   1   2
BRANCH   1  15
ATOM     15  N1  <0> d   1       1.428  -1.797   4.133  0.00  0.00     0.096 N 
ATOM     16  C15 <0> d   1       1.447  -0.910   5.304  0.00  0.00     0.303 C 
ATOM     17  C14 <0> d   1       2.890  -0.502   5.608  0.00  0.00     0.303 C 
ATOM     18  N2  <0> d   1       3.696  -1.707   5.851  0.00  0.00     0.096 N 
ATOM     19  C13 <0> d   1       3.677  -2.595   4.680  0.00  0.00     0.303 C 
ATOM     20  C12 <0> d   1       2.233  -3.002   4.375  0.00  0.00     0.303 C 
BRANCH  18  21
ATOM     21  C16 <0> d   1       5.073  -1.354   6.222  0.00  0.00     0.311 C 
BRANCH  21  22
ATOM     22  C17 <0> d   1       5.070  -0.654   7.556  0.00  0.00    -0.030 A 
ATOM     23  C22 <0> d   1       5.190  -1.387   8.722  0.00  0.00     0.009 A 
ATOM     24  C21 <0> d   1       5.192  -0.745   9.946  0.00  0.00     0.001 A 
ATOM     25  C20 <0> d   1       5.064   0.631  10.004  0.00  0.00     0.000 A 
ATOM     26  C19 <0> d   1       4.939   1.364   8.839  0.00  0.00     0.001 A 
ATOM     27  C18 <0> d   1       4.941   0.721   7.615  0.00  0.00     0.009 A 
ENDBRANCH  21  22
ENDBRANCH  18  21
ENDBRANCH   1  15
TORSDOF 4
