REMARK  7 active torsions:
REMARK  status: ('A' for Active; 'I' for Inactive)
REMARK    1  A    between atoms: C4_4  and  C7_8 
REMARK    2  A    between atoms: C13_15  and  O4_29 
REMARK    3  A    between atoms: C14_16  and  C16_19 
REMARK    4  A    between atoms: C16_19  and  N1_20 
REMARK    5  A    between atoms: N2_23  and  C21_26 
REMARK    6  A    between atoms: C21_26  and  C22_27 
REMARK    7  A    between atoms: C22_27  and  O3_28 
ROOT
ATOM      1  C7  <0> d   1       4.319   2.600   6.408  0.00  0.00     0.057 C 
ATOM      2  C8  <0> d   1       4.210   3.108   5.154  0.00  0.00     0.128 A 
ATOM      3  C9  <0> d   1       4.210   4.532   4.790  0.00  0.00     0.218 A 
ATOM      4  O1  <0> d   1       4.305   5.492   5.534  0.00  0.00    -0.284 OA
ATOM      5  C10 <0> d   1       4.068   4.539   3.322  0.00  0.00     0.051 A 
ATOM      6  C11 <0> d   1       4.002   5.561   2.375  0.00  0.00     0.021 A 
ATOM      7  C12 <0> d   1       3.867   5.253   1.050  0.00  0.00     0.038 A 
ATOM      8  C13 <0> d   1       3.801   3.923   0.644  0.00  0.00     0.076 A 
ATOM      9  C14 <0> d   1       3.860   2.898   1.575  0.00  0.00     0.038 A 
ATOM     10  C15 <0> d   1       3.997   3.194   2.926  0.00  0.00     0.101 A 
ATOM     11  O2  <0> d   1       4.083   2.394   4.011  0.00  0.00    -0.305 OA
ENDROOT
BRANCH   9  12
ATOM     12  C16 <0> d   1       3.782   1.463   1.122  0.00  0.00     0.317 C 
BRANCH  12  13
ATOM     13  N1  <0> d   1       2.379   1.030   1.107  0.00  0.00     0.096 N 
ATOM     14  C20 <0> d   1       2.278  -0.422   0.901  0.00  0.00     0.303 C 
ATOM     15  C19 <0> d   1       0.808  -0.843   0.972  0.00  0.00     0.302 C 
ATOM     16  N2  <0> d   1       0.043  -0.115  -0.050  0.00  0.00     0.093 N 
ATOM     17  C18 <0> d   1       0.144   1.336   0.156  0.00  0.00     0.302 C 
ATOM     18  C17 <0> d   1       1.613   1.758   0.085  0.00  0.00     0.303 C 
BRANCH  16  19
ATOM     19  C21 <0> d   1      -1.361  -0.549  -0.064  0.00  0.00     0.298 C 
BRANCH  19  20
ATOM     20  C22 <0> d   1      -1.999  -0.164  -1.400  0.00  0.00     0.194 C 
BRANCH  20  21
ATOM     21  O3  <0> d   1      -1.363  -0.884  -2.458  0.00  0.00    -0.399 OA
ATOM     22  H21 <0> d   1      -1.690  -0.737  -3.498  0.00  0.00     0.209 HD
ENDBRANCH  20  21
ENDBRANCH  19  20
ENDBRANCH  16  19
ENDBRANCH  12  13
ENDBRANCH   9  12
BRANCH   8  23
ATOM     23  O4  <0> d   1       3.673   3.627  -0.674  0.00  0.00    -0.360 OA
ATOM     24  H22 <0> d   1       3.620   2.578  -1.000  0.00  0.00     0.217 HD
ENDBRANCH   8  23
BRANCH   1  25
ATOM     25  C4  <0> d   1       4.304   1.147   6.616  0.00  0.00     0.027 A 
ATOM     26  C3  <0> d   1       5.297   0.536   7.395  0.00  0.00     0.128 A 
ATOM     27  C2  <0> d   1       5.274  -0.832   7.585  0.00  0.00     0.043 A 
ATOM     28  F1  <0> d   1       6.273   1.282   7.958  0.00  0.00    -0.205 F 
ATOM     29  C1  <0> d   1       4.274  -1.598   7.011  0.00  0.00     0.005 A 
ATOM     30  C6  <0> d   1       3.291  -1.002   6.241  0.00  0.00     0.025 A 
ATOM     31  C5  <0> d   1       3.294   0.363   6.043  0.00  0.00     0.047 A 
ATOM     32 Cl1  <0> d   1       2.054   1.107   5.083  0.00  0.00    -0.083 Cl
ENDBRANCH   1  25
TORSDOF 7
