REMARK  5 active torsions:
REMARK  status: ('A' for Active; 'I' for Inactive)
REMARK    1  A    between atoms: C3_3  and  O4_18 
REMARK    2  A    between atoms: C9_10  and  C11_13 
REMARK    3  A    between atoms: C11_13  and  N1_14 
REMARK    4  A    between atoms: O4_18  and  C14_19 
REMARK    5  A    between atoms: C18_23  and  O5_25 
ROOT
ATOM      1  C1  <0> d   1      -3.680   3.850   0.585  0.00  0.00     0.080 C 
ATOM      2  C2  <0> d   1      -3.540   2.973  -0.633  0.00  0.00     0.087 A 
ATOM      3  C3  <0> d   1      -4.113   3.373  -1.786  0.00  0.00     0.156 A 
ATOM      4  C4  <0> d   1      -3.983   2.565  -2.951  0.00  0.00     0.221 A 
ATOM      5  O1  <0> d   1      -4.487   2.895  -4.012  0.00  0.00    -0.284 OA
ATOM      6  C5  <0> d   1      -3.229   1.306  -2.818  0.00  0.00     0.052 A 
ATOM      7  C6  <0> d   1      -3.063   0.441  -3.900  0.00  0.00     0.021 A 
ATOM      8  C7  <0> d   1      -2.358  -0.718  -3.738  0.00  0.00     0.041 A 
ATOM      9  C8  <0> d   1      -1.805  -1.039  -2.500  0.00  0.00     0.118 A 
ATOM     10  C9  <0> d   1      -1.962  -0.191  -1.417  0.00  0.00     0.039 A 
ATOM     11  C10 <0> d   1      -2.680   0.988  -1.563  0.00  0.00     0.101 A 
ATOM     12  O2  <0> d   1      -2.853   1.829  -0.524  0.00  0.00    -0.311 OA
ATOM     13  O3  <0> d   1      -1.107  -2.194  -2.354  0.00  0.00    -0.191 OA
ENDROOT
BRANCH   3  14
ATOM     14  O4  <0> d   1      -4.801   4.546  -1.838  0.00  0.00    -0.304 OA
BRANCH  14  15
ATOM     15  C14 <0> d   1      -4.116   5.673  -2.163  0.00  0.00     0.079 A 
ATOM     16  C19 <0> d   1      -4.775   6.891  -2.229  0.00  0.00     0.074 A 
ATOM     17  C18 <0> d   1      -4.072   8.040  -2.561  0.00  0.00     0.070 A 
ATOM     18  C17 <0> d   1      -2.712   7.968  -2.825  0.00  0.00     0.037 A 
ATOM     19  C16 <0> d   1      -2.058   6.753  -2.759  0.00  0.00     0.005 A 
ATOM     20  C15 <0> d   1      -2.754   5.608  -2.424  0.00  0.00     0.037 A 
BRANCH  17  21
ATOM     21  O5  <0> d   1      -4.716   9.235  -2.626  0.00  0.00    -0.356 OA
ATOM     22  C20 <0> d   1      -3.929  10.377  -2.973  0.00  0.00     0.210 C 
ENDBRANCH  17  21
ENDBRANCH  14  15
ENDBRANCH   3  14
BRANCH  10  23
ATOM     23  C11 <0> d   1      -1.360  -0.549  -0.083  0.00  0.00     0.278 C 
BRANCH  23  24
ATOM     24  N1  <0> d   1       0.002  -0.004   0.002  0.00  0.00    -0.075 N 
ATOM     25  C12 <0> d   1      -0.018   1.465   0.010  0.00  0.00     0.269 C 
ATOM     26  C13 <0> d   1       0.706  -0.527   1.180  0.00  0.00     0.269 C 
ATOM     27  H21 <0> d   1       0.552  -0.330  -0.893  0.00  0.00     0.279 HD
ENDBRANCH  23  24
ENDBRANCH  10  23
TORSDOF 5
