REMARK  5 active torsions:
REMARK  status: ('A' for Active; 'I' for Inactive)
REMARK    1  A    between atoms: C2_2  and  N1_3 
REMARK    2  A    between atoms: N2_6  and  C7_9 
REMARK    3  A    between atoms: C7_9  and  C8_10 
REMARK    4  A    between atoms: C9_11  and  O3_27 
REMARK    5  A    between atoms: C15_18  and  C16_19 
ROOT
ATOM      1  C8  <0> d   1      -4.908  -4.112  -0.919  0.00  0.00     0.038 A 
ATOM      2  C9  <0> d   1      -4.904  -4.799  -2.122  0.00  0.00     0.076 A 
ATOM      3  C10 <0> d   1      -4.885  -6.191  -2.142  0.00  0.00     0.038 A 
ATOM      4  C11 <0> d   1      -4.870  -6.895  -0.971  0.00  0.00     0.021 A 
ATOM      5  C12 <0> d   1      -4.873  -6.217   0.247  0.00  0.00     0.051 A 
ATOM      6  C13 <0> d   1      -4.887  -4.813   0.279  0.00  0.00     0.101 A 
ATOM      7  O1  <0> d   1      -4.881  -4.407   1.567  0.00  0.00    -0.305 OA
ATOM      8  C14 <0> d   1      -4.858  -5.460   2.417  0.00  0.00     0.128 A 
ATOM      9  C15 <0> d   1      -4.846  -5.383   3.780  0.00  0.00     0.060 C 
ATOM     10  C21 <0> d   1      -4.861  -6.657   1.653  0.00  0.00     0.218 A 
ATOM     11  O2  <0> d   1      -4.844  -7.803   2.071  0.00  0.00    -0.284 OA
ENDROOT
BRANCH   1  12
ATOM     12  C7  <0> d   1      -4.928  -2.605  -0.910  0.00  0.00     0.317 C 
BRANCH  12  13
ATOM     13  N2  <0> d   1      -3.550  -2.096  -0.921  0.00  0.00     0.096 N 
ATOM     14  C4  <0> d   1      -3.526  -0.645  -1.151  0.00  0.00     0.303 C 
ATOM     15  C3  <0> d   1      -2.074  -0.169  -1.234  0.00  0.00     0.302 C 
ATOM     16  N1  <0> d   1      -1.376  -0.512   0.012  0.00  0.00     0.091 N 
ATOM     17  C6  <0> d   1      -1.400  -1.964   0.243  0.00  0.00     0.302 C 
ATOM     18  C5  <0> d   1      -2.852  -2.440   0.326  0.00  0.00     0.303 C 
BRANCH  16  19
ATOM     19  C2  <0> d   1       0.002  -0.004   0.002  0.00  0.00     0.268 C 
ATOM     20  C1  <0> d   1      -0.019   1.526   0.010  0.00  0.00     0.037 C 
ENDBRANCH  16  19
ENDBRANCH  12  13
ENDBRANCH   1  12
BRANCH   2  21
ATOM     21  O3  <0> d   1      -4.920  -4.109  -3.291  0.00  0.00    -0.360 OA
ATOM     22  H24 <0> d   1      -4.041  -3.897  -3.634  0.00  0.00     0.217 HD
ENDBRANCH   2  21
BRANCH   9  23
ATOM     23  C16 <0> d   1      -4.857  -4.123   4.417  0.00  0.00     0.013 A 
ATOM     24  S1  <0> d   1      -4.886  -2.496   3.689  0.00  0.00    -0.102 SA
ATOM     25  C19 <0> d   1      -4.887  -1.575   5.093  0.00  0.00     0.051 A 
ATOM     26  C18 <0> d   1      -4.859  -2.490   6.094  0.00  0.00     0.015 A 
ATOM     27  C17 <0> d   1      -4.843  -3.826   5.777  0.00  0.00    -0.044 A 
ATOM     28  C20 <0> d   1      -4.813  -4.902   6.833  0.00  0.00     0.049 C 
ENDBRANCH   9  23
TORSDOF 5
