REMARK  7 active torsions:
REMARK  status: ('A' for Active; 'I' for Inactive)
REMARK    1  A    between atoms: C2_2  and  N1_3 
REMARK    2  A    between atoms: N1_3  and  C3_4 
REMARK    3  A    between atoms: N1_3  and  C5_6 
REMARK    4  A    between atoms: C5_6  and  C6_7 
REMARK    5  A    between atoms: C13_15  and  O3_18 
REMARK    6  A    between atoms: O3_18  and  C15_19 
REMARK    7  A    between atoms: C19_23  and  O4_25 
ROOT
ATOM      1  C6  <0> d   1      -0.150   1.871   0.563  0.00  0.00     0.039 A 
ATOM      2  C7  <0> d   1       1.038   2.572   0.675  0.00  0.00     0.118 A 
ATOM      3  C8  <0> d   1       1.036   3.919   1.033  0.00  0.00     0.041 A 
ATOM      4  C9  <0> d   1      -0.141   4.566   1.278  0.00  0.00     0.021 A 
ATOM      5  C10 <0> d   1      -1.348   3.873   1.169  0.00  0.00     0.052 A 
ATOM      6  C11 <0> d   1      -1.355   2.515   0.803  0.00  0.00     0.101 A 
ATOM      7  O1  <0> d   1      -2.527   1.857   0.696  0.00  0.00    -0.311 OA
ATOM      8  C12 <0> d   1      -3.707   2.451   0.921  0.00  0.00     0.087 A 
ATOM      9  C13 <0> d   1      -3.816   3.748   1.272  0.00  0.00     0.156 A 
ATOM     10  C14 <0> d   1      -2.639   4.535   1.425  0.00  0.00     0.221 A 
ATOM     11  O2  <0> d   1      -2.698   5.711   1.741  0.00  0.00    -0.284 OA
ATOM     12  C22 <0> d   1      -4.965   1.634   0.777  0.00  0.00     0.080 C 
ATOM     13  O5  <0> d   1       2.217   1.942   0.434  0.00  0.00    -0.191 OA
ENDROOT
BRANCH   9  14
ATOM     14  O3  <0> d   1      -5.041   4.299   1.488  0.00  0.00    -0.304 OA
BRANCH  14  15
ATOM     15  C15 <0> d   1      -5.550   4.250   2.747  0.00  0.00     0.079 A 
ATOM     16  C20 <0> d   1      -6.795   4.798   3.014  0.00  0.00     0.074 A 
ATOM     17  C19 <0> d   1      -7.311   4.747   4.300  0.00  0.00     0.070 A 
ATOM     18  C18 <0> d   1      -6.580   4.147   5.316  0.00  0.00     0.037 A 
ATOM     19  C17 <0> d   1      -5.339   3.601   5.047  0.00  0.00     0.005 A 
ATOM     20  C16 <0> d   1      -4.825   3.646   3.765  0.00  0.00     0.037 A 
BRANCH  17  21
ATOM     21  O4  <0> d   1      -8.531   5.283   4.565  0.00  0.00    -0.356 OA
ATOM     22  C21 <0> d   1      -9.000   5.194   5.912  0.00  0.00     0.210 C 
ENDBRANCH  17  21
ENDBRANCH  14  15
ENDBRANCH   9  14
BRANCH   1  23
ATOM     23  C5  <0> d   1      -0.136   0.414   0.175  0.00  0.00     0.279 C 
BRANCH  23  24
ATOM     24  N1  <0> d   1      -0.047  -0.414   1.385  0.00  0.00    -0.068 N 
ATOM     25  H25 <0> d   1      -0.843  -0.092   2.074  0.00  0.00     0.280 HD
BRANCH  24  26
ATOM     26  C2  <0> d   1      -0.268  -1.831   1.070  0.00  0.00     0.231 C 
ATOM     27  C1  <0> d   1      -1.760  -2.075   0.833  0.00  0.00     0.034 C 
ENDBRANCH  24  26
BRANCH  24  28
ATOM     28  C3  <0> d   1       1.242  -0.219   2.063  0.00  0.00     0.231 C 
ATOM     29  C4  <0> d   1       1.164  -0.791   3.480  0.00  0.00     0.034 C 
ENDBRANCH  24  28
ENDBRANCH  23  24
ENDBRANCH   1  23
TORSDOF 7
