REMARK  3 active torsions:
REMARK  status: ('A' for Active; 'I' for Inactive)
REMARK    1  A    between atoms: C8_8  and  C11_13 
REMARK    2  A    between atoms: C11_13  and  N1_14 
REMARK    3  A    between atoms: N2_17  and  C16_20 
ROOT
ATOM      1  C11 <0> d   1       0.001  -2.227   4.108  0.00  0.00     0.274 C 
ENDROOT
BRANCH   1   2
ATOM      2  C8  <0> d   1      -0.172  -2.809   2.729  0.00  0.00    -0.014 A 
ATOM      3  C6  <0> d   1      -0.411  -1.942   1.570  0.00  0.00     0.007 A 
ATOM      4  C5  <0> d   1      -0.566  -2.527   0.302  0.00  0.00     0.096 A 
ATOM      5  C7  <0> d   1      -0.479  -0.552   1.711  0.00  0.00     0.021 A 
ATOM      6  C4  <0> d   1      -0.792  -1.712  -0.801  0.00  0.00    -0.027 A 
ATOM      7  O2  <0> d   1      -0.496  -3.868   0.167  0.00  0.00    -0.274 OA
ATOM      8  C3  <0> d   1      -0.861  -0.344  -0.640  0.00  0.00     0.016 A 
ATOM      9  C21 <0> d   1      -0.962  -2.322  -2.168  0.00  0.00     0.051 C 
ATOM     10  C2  <0> d   1      -0.707   0.230   0.614  0.00  0.00    -0.060 A 
ATOM     11  C1  <0> d   1      -0.785   1.727   0.766  0.00  0.00     0.048 C 
ATOM     12  C10 <0> d   1      -0.278  -4.668   1.222  0.00  0.00     0.288 A 
ATOM     13  C9  <0> d   1      -0.112  -4.149   2.524  0.00  0.00     0.092 A 
ATOM     14  O1  <0> d   1      -0.222  -5.873   1.052  0.00  0.00    -0.260 OA
ENDBRANCH   1   2
BRANCH   1  15
ATOM     15  N1  <0> d   1       1.403  -1.835   4.301  0.00  0.00    -0.064 N 
ATOM     16  C15 <0> d   1       1.597  -1.380   5.684  0.00  0.00     0.255 C 
ATOM     17  C14 <0> d   1       3.081  -1.079   5.919  0.00  0.00     0.152 C 
ATOM     18  N2  <0> d   1       3.530  -0.121   4.896  0.00  0.00    -0.363 N 
ATOM     19  C13 <0> d   1       3.231  -0.421   3.487  0.00  0.00     0.152 C 
ATOM     20  C12 <0> d   1       1.740  -0.752   3.367  0.00  0.00     0.255 C 
ATOM     21  H24 <0> d   1       2.001  -2.628   4.122  0.00  0.00     0.280 HD
BRANCH  18  22
ATOM     22  C16 <0> d   1       4.217   1.033   5.252  0.00  0.00     0.125 A 
ATOM     23  N3  <0> d   1       4.289   1.389   6.525  0.00  0.00    -0.244 NA
ATOM     24  C20 <0> d   1       4.936   2.474   6.905  0.00  0.00     0.119 A 
ATOM     25  C19 <0> d   1       5.556   3.289   5.979  0.00  0.00     0.019 A 
ATOM     26  C18 <0> d   1       5.499   2.955   4.633  0.00  0.00     0.005 A 
ATOM     27  C17 <0> d   1       4.819   1.809   4.265  0.00  0.00     0.050 A 
ENDBRANCH  18  22
ENDBRANCH   1  15
TORSDOF 3
