REMARK  7 active torsions:
REMARK  status: ('A' for Active; 'I' for Inactive)
REMARK    1  A    between atoms: C2_2  and  C4_4 
REMARK    2  A    between atoms: C4_4  and  O1_5 
REMARK    3  A    between atoms: O1_5  and  C5_6 
REMARK    4  A    between atoms: C7_8  and  O2_9 
REMARK    5  A    between atoms: C8_10  and  C9_11 
REMARK    6  A    between atoms: C10_12  and  C13_18 
REMARK    7  A    between atoms: C12_15  and  N3_17 
ROOT
ATOM      1  C9  <0> d   1      -5.554  -5.511  -0.118  0.00  0.00     0.101 A 
ATOM      2  C10 <0> d   1      -6.466  -5.472   0.956  0.00  0.00     0.023 A 
ATOM      3  C11 <0> d   1      -7.410  -6.494   1.057  0.00  0.00     0.151 A 
ATOM      4  N1  <0> d   1      -7.417  -7.456   0.149  0.00  0.00    -0.075 NA
ATOM      5  C12 <0> d   1      -6.545  -7.463  -0.849  0.00  0.00     0.720 A 
ATOM      6  N2  <0> d   1      -5.634  -6.513  -0.991  0.00  0.00    -0.062 NA
ENDROOT
BRANCH   1   7
ATOM      7  C8  <0> d   1      -4.531  -4.455  -0.277  0.00  0.00     0.028 A 
ATOM      8  C7  <0> d   1      -3.188  -4.801  -0.470  0.00  0.00     0.081 A 
ATOM      9  C6  <0> d   1      -2.236  -3.806  -0.616  0.00  0.00     0.074 A 
ATOM     10  C5  <0> d   1      -2.614  -2.472  -0.573  0.00  0.00     0.071 A 
ATOM     11  C20 <0> d   1      -3.946  -2.128  -0.375  0.00  0.00     0.038 A 
ATOM     12  C19 <0> d   1      -4.902  -3.110  -0.233  0.00  0.00     0.019 A 
BRANCH   8  13
ATOM     13  O2  <0> d   1      -2.820  -6.107  -0.512  0.00  0.00    -0.360 OA
ATOM     14  H18 <0> d   1      -2.586  -6.478   0.349  0.00  0.00     0.217 HD
ENDBRANCH   8  13
BRANCH  10  15
ATOM     15  O1  <0> d   1      -1.677  -1.499  -0.717  0.00  0.00    -0.347 OA
BRANCH  15  16
ATOM     16  C4  <0> d   1      -2.133  -0.146  -0.656  0.00  0.00     0.208 C 
BRANCH  16  17
ATOM     17  C2  <0> d   1      -0.964   0.787  -0.835  0.00  0.00    -0.069 C 
ATOM     18  C1  <0> d   1      -1.179   2.278  -0.811  0.00  0.00     0.044 C 
ATOM     19  C3  <0> d   1       0.240   0.301  -1.013  0.00  0.00     0.016 C 
ENDBRANCH  16  17
ENDBRANCH  15  16
ENDBRANCH  10  15
ENDBRANCH   1   7
BRANCH   2  20
ATOM     20  C13 <0> d   1      -6.422  -4.375   1.952  0.00  0.00    -0.022 A 
ATOM     21  C18 <0> d   1      -7.557  -3.600   2.189  0.00  0.00     0.014 A 
ATOM     22  C17 <0> d   1      -7.513  -2.585   3.122  0.00  0.00     0.024 A 
ATOM     23  C16 <0> d   1      -6.341  -2.326   3.812  0.00  0.00     0.034 A 
ATOM     24  C15 <0> d   1      -5.210  -3.089   3.576  0.00  0.00     0.024 A 
ATOM     25 Cl1  <0> d   1      -6.290  -1.042   4.979  0.00  0.00    -0.084 Cl
ATOM     26  C14 <0> d   1      -5.245  -4.111   2.650  0.00  0.00     0.014 A 
ENDBRANCH   2  20
BRANCH   5  27
ATOM     27  N3  <0> d   1      -6.593  -8.491  -1.774  0.00  0.00    -0.231 N 
ATOM     28  H10 <0> d   1      -7.257  -9.192  -1.687  0.00  0.00     0.174 HD
ATOM     29  H11 <0> d   1      -5.961  -8.510  -2.511  0.00  0.00     0.174 HD
ENDBRANCH   5  27
TORSDOF 7
