REMARK  9 active torsions:
REMARK  status: ('A' for Active; 'I' for Inactive)
REMARK    1  A    between atoms: C7_8  and  C8_9 
REMARK    2  A    between atoms: C7_8  and  N3_35 
REMARK    3  A    between atoms: C8_9  and  O2_10 
REMARK    4  A    between atoms: O2_10  and  C9_11 
REMARK    5  A    between atoms: C12_14  and  C15_18 
REMARK    6  A    between atoms: C13_15  and  O3_17 
REMARK    7  A    between atoms: C16_19  and  C18_24 
REMARK    8  A    between atoms: C21_27  and  O5_32 
REMARK    9  A    between atoms: C22_28  and  O4_30 
ROOT
ATOM      1  C9  <0> d   1      -0.595  -0.046  -0.082  0.00  0.00     0.071 A 
ATOM      2  C10 <0> d   1      -0.512   1.319   0.157  0.00  0.00     0.038 A 
ATOM      3  C11 <0> d   1       0.714   1.951   0.157  0.00  0.00     0.019 A 
ATOM      4  C12 <0> d   1       1.874   1.218  -0.085  0.00  0.00     0.026 A 
ATOM      5  C13 <0> d   1       1.791  -0.157  -0.326  0.00  0.00     0.081 A 
ATOM      6  C14 <0> d   1       0.555  -0.783  -0.323  0.00  0.00     0.074 A 
ENDROOT
BRANCH   4   7
ATOM      7  C15 <0> d   1       3.194   1.894  -0.085  0.00  0.00     0.075 A 
ATOM      8  C16 <0> d   1       3.515   3.098  -0.761  0.00  0.00     0.022 A 
ATOM      9  C17 <0> d   1       4.824   3.375  -0.506  0.00  0.00     0.153 A 
ATOM     10  N1  <0> d   1       5.308   2.393   0.283  0.00  0.00    -0.186 NA
ATOM     11  N2  <0> d   1       4.277   1.479   0.534  0.00  0.00    -0.277 N 
ATOM     12  H3  <0> d   1       4.352   0.652   1.091  0.00  0.00     0.189 HD
BRANCH   8  13
ATOM     13  C18 <0> d   1       2.593   3.909  -1.595  0.00  0.00    -0.019 A 
ATOM     14  C23 <0> d   1       2.392   5.257  -1.304  0.00  0.00     0.052 A 
ATOM     15  C22 <0> d   1       1.532   6.010  -2.084  0.00  0.00     0.102 A 
ATOM     16  C21 <0> d   1       0.870   5.420  -3.157  0.00  0.00     0.101 A 
ATOM     17  C20 <0> d   1       1.071   4.079  -3.446  0.00  0.00     0.040 A 
ATOM     18  C19 <0> d   1       1.932   3.325  -2.674  0.00  0.00     0.015 A 
BRANCH  15  19
ATOM     19  O4  <0> d   1       1.334   7.325  -1.802  0.00  0.00    -0.353 OA
ATOM     20  C24 <0> d   1       2.046   7.864  -0.686  0.00  0.00     0.210 C 
ENDBRANCH  15  19
BRANCH  16  21
ATOM     21  O5  <0> d   1       0.025   6.161  -3.923  0.00  0.00    -0.353 OA
ATOM     22  C25 <0> d   1      -0.621   5.492  -5.008  0.00  0.00     0.210 C 
ENDBRANCH  16  21
ENDBRANCH   8  13
ENDBRANCH   4   7
BRANCH   5  23
ATOM     23  O3  <0> d   1       2.918  -0.877  -0.562  0.00  0.00    -0.360 OA
ATOM     24  H21 <0> d   1       3.163  -0.929  -1.496  0.00  0.00     0.217 HD
ENDBRANCH   5  23
BRANCH   1  25
ATOM     25  O2  <0> d   1      -1.806  -0.662  -0.080  0.00  0.00    -0.349 OA
BRANCH  25  26
ATOM     26  C8  <0> d   1      -2.950   0.155   0.175  0.00  0.00     0.203 C 
BRANCH  26  27
ATOM     27  C7  <0> d   1      -4.212  -0.708   0.137  0.00  0.00     0.261 C 
BRANCH  27  28
ATOM     28  N3  <0> d   1      -4.146  -1.696   1.235  0.00  0.00    -0.064 N 
ATOM     29  C3  <0> d   1      -5.091  -2.802   0.978  0.00  0.00     0.266 C 
ATOM     30  C2  <0> d   1      -4.972  -3.824   2.112  0.00  0.00     0.143 C 
ATOM     31  C1  <0> d   1      -5.984  -4.950   1.894  0.00  0.00     0.041 C 
ATOM     32  O1  <0> d   1      -5.239  -3.177   3.359  0.00  0.00    -0.378 OA
ATOM     33  C5  <0> d   1      -4.360  -2.084   3.640  0.00  0.00     0.143 C 
ATOM     34  C4  <0> d   1      -4.473  -1.045   2.521  0.00  0.00     0.266 C 
ATOM     35  C6  <0> d   1      -4.751  -1.443   4.973  0.00  0.00     0.041 C 
ATOM     36  H32 <0> d   1      -3.193  -2.075   1.286  0.00  0.00     0.280 HD
ENDBRANCH  27  28
ENDBRANCH  26  27
ENDBRANCH  25  26
ENDBRANCH   1  25
TORSDOF 9
