REMARK  9 active torsions:
REMARK  status: ('A' for Active; 'I' for Inactive)
REMARK    1  A    between atoms: C3_3  and  C23_30 
REMARK    2  A    between atoms: C4_4  and  C5_8 
REMARK    3  A    between atoms: C8_11  and  O2_15 
REMARK    4  A    between atoms: C10_13  and  O1_14 
REMARK    5  A    between atoms: O2_15  and  C11_16 
REMARK    6  A    between atoms: C11_16  and  C12_17 
REMARK    7  A    between atoms: C12_17  and  N3_18 
REMARK    8  A    between atoms: N4_21  and  C17_24 
REMARK    9  A    between atoms: C26_33  and  O3_36 
ROOT
ATOM      1  C5  <0> d   1      -1.260   2.927  -4.611  0.00  0.00     0.026 A 
ATOM      2  C6  <0> d   1      -1.528   4.224  -5.051  0.00  0.00     0.019 A 
ATOM      3  C7  <0> d   1      -1.337   4.556  -6.375  0.00  0.00     0.038 A 
ATOM      4  C8  <0> d   1      -0.878   3.602  -7.275  0.00  0.00     0.071 A 
ATOM      5  C9  <0> d   1      -0.609   2.310  -6.847  0.00  0.00     0.074 A 
ATOM      6  C10 <0> d   1      -0.791   1.968  -5.519  0.00  0.00     0.081 A 
ENDROOT
BRANCH   4   7
ATOM      7  O2  <0> d   1      -0.693   3.936  -8.579  0.00  0.00    -0.349 OA
BRANCH   7   8
ATOM      8  C11 <0> d   1      -0.989   5.283  -8.952  0.00  0.00     0.203 C 
BRANCH   8   9
ATOM      9  C12 <0> d   1      -0.722   5.468 -10.447  0.00  0.00     0.261 C 
BRANCH   9  10
ATOM     10  N3  <0> d   1      -1.623   4.601 -11.217  0.00  0.00    -0.066 N 
ATOM     11  C16 <0> d   1      -3.008   5.052 -11.034  0.00  0.00     0.254 C 
ATOM     12  C15 <0> d   1      -3.958   4.081 -11.743  0.00  0.00     0.150 C 
ATOM     13  N4  <0> d   1      -3.539   3.961 -13.148  0.00  0.00    -0.378 N 
ATOM     14  C14 <0> d   1      -2.124   3.671 -13.428  0.00  0.00     0.150 C 
ATOM     15  C13 <0> d   1      -1.261   4.661 -12.639  0.00  0.00     0.254 C 
ATOM     16  H33 <0> d   1      -1.534   3.651 -10.890  0.00  0.00     0.280 HD
BRANCH  13  17
ATOM     17  C17 <0> d   1      -4.459   4.117 -14.188  0.00  0.00     0.030 A 
ATOM     18  C22 <0> d   1      -5.762   4.512 -13.911  0.00  0.00     0.029 A 
ATOM     19  C21 <0> d   1      -6.667   4.671 -14.942  0.00  0.00     0.002 A 
ATOM     20  C20 <0> d   1      -6.281   4.426 -16.247  0.00  0.00     0.000 A 
ATOM     21  C19 <0> d   1      -4.987   4.027 -16.526  0.00  0.00     0.002 A 
ATOM     22  C18 <0> d   1      -4.074   3.872 -15.500  0.00  0.00     0.029 A 
ENDBRANCH  13  17
ENDBRANCH   9  10
ENDBRANCH   8   9
ENDBRANCH   7   8
ENDBRANCH   4   7
BRANCH   6  23
ATOM     23  O1  <0> d   1      -0.523   0.705  -5.098  0.00  0.00    -0.360 OA
ATOM     24  H8  <0> d   1      -1.277   0.102  -5.155  0.00  0.00     0.217 HD
ENDBRANCH   6  23
BRANCH   1  25
ATOM     25  C4  <0> d   1      -1.464   2.568  -3.193  0.00  0.00     0.076 A 
ATOM     26  C3  <0> d   1      -0.480   2.198  -2.285  0.00  0.00     0.029 A 
ATOM     27  C2  <0> d   1      -1.119   1.945  -1.058  0.00  0.00     0.064 A 
ATOM     28  C1  <0> d   1      -0.438   1.515   0.215  0.00  0.00     0.073 C 
ATOM     29  N2  <0> d   1      -2.402   2.141  -1.209  0.00  0.00    -0.178 NA
ATOM     30  N1  <0> d   1      -2.653   2.536  -2.528  0.00  0.00    -0.276 N 
ATOM     31  H1  <0> d   1      -3.522   2.747  -2.903  0.00  0.00     0.189 HD
BRANCH  26  32
ATOM     32  C23 <0> d   1       0.973   2.091  -2.558  0.00  0.00    -0.021 A 
ATOM     33  C28 <0> d   1       1.607   0.852  -2.488  0.00  0.00     0.015 A 
ATOM     34  C27 <0> d   1       2.959   0.754  -2.748  0.00  0.00     0.037 A 
ATOM     35  C26 <0> d   1       3.689   1.891  -3.068  0.00  0.00     0.068 A 
ATOM     36  C25 <0> d   1       3.061   3.127  -3.134  0.00  0.00     0.037 A 
ATOM     37  C24 <0> d   1       1.709   3.230  -2.881  0.00  0.00     0.015 A 
BRANCH  35  38
ATOM     38  O3  <0> d   1       5.021   1.793  -3.318  0.00  0.00    -0.356 OA
ATOM     39  C29 <0> d   1       5.603   0.490  -3.233  0.00  0.00     0.210 C 
ENDBRANCH  35  38
ENDBRANCH  26  32
ENDBRANCH   1  25
TORSDOF 9
