REMARK  7 active torsions:
REMARK  status: ('A' for Active; 'I' for Inactive)
REMARK    1  A    between atoms: C5_5  and  C8_8 
REMARK    2  A    between atoms: C14_15  and  O4_29 
REMARK    3  A    between atoms: C15_16  and  C17_19 
REMARK    4  A    between atoms: C17_19  and  N1_20 
REMARK    5  A    between atoms: N2_23  and  C22_26 
REMARK    6  A    between atoms: C22_26  and  C23_27 
REMARK    7  A    between atoms: C23_27  and  O3_28 
ROOT
ATOM      1  C8  <0> d   1       0.059  -4.244  -0.021  0.00  0.00     0.053 C 
ATOM      2  C9  <0> d   1       0.176  -4.927   1.144  0.00  0.00     0.127 A 
ATOM      3  C10 <0> d   1       0.319  -6.385   1.288  0.00  0.00     0.218 A 
ATOM      4  O1  <0> d   1       0.357  -7.221   0.403  0.00  0.00    -0.284 OA
ATOM      5  C11 <0> d   1       0.407  -6.606   2.743  0.00  0.00     0.051 A 
ATOM      6  C12 <0> d   1       0.550  -7.751   3.527  0.00  0.00     0.021 A 
ATOM      7  C13 <0> d   1       0.603  -7.642   4.888  0.00  0.00     0.038 A 
ATOM      8  C14 <0> d   1       0.514  -6.391   5.493  0.00  0.00     0.076 A 
ATOM      9  C15 <0> d   1       0.371  -5.246   4.727  0.00  0.00     0.038 A 
ATOM     10  C16 <0> d   1       0.316  -5.339   3.342  0.00  0.00     0.101 A 
ATOM     11  O2  <0> d   1       0.189  -4.391   2.388  0.00  0.00    -0.305 OA
ENDROOT
BRANCH   9  12
ATOM     12  C17 <0> d   1       0.276  -3.899   5.396  0.00  0.00     0.317 C 
BRANCH  12  13
ATOM     13  N1  <0> d   1       1.622  -3.332   5.550  0.00  0.00     0.096 N 
ATOM     14  C21 <0> d   1       1.556  -1.928   5.978  0.00  0.00     0.303 C 
ATOM     15  C20 <0> d   1       2.973  -1.353   6.051  0.00  0.00     0.302 C 
ATOM     16  N2  <0> d   1       3.775  -2.149   6.989  0.00  0.00     0.093 N 
ATOM     17  C19 <0> d   1       3.841  -3.554   6.561  0.00  0.00     0.302 C 
ATOM     18  C18 <0> d   1       2.424  -4.129   6.489  0.00  0.00     0.303 C 
BRANCH  16  19
ATOM     19  C22 <0> d   1       5.121  -1.583   7.144  0.00  0.00     0.298 C 
BRANCH  19  20
ATOM     20  C23 <0> d   1       5.024  -0.215   7.823  0.00  0.00     0.194 C 
BRANCH  20  21
ATOM     21  O3  <0> d   1       4.528  -0.378   9.153  0.00  0.00    -0.399 OA
ATOM     22  H25 <0> d   1       4.440   0.450   9.644  0.00  0.00     0.209 HD
ENDBRANCH  20  21
ENDBRANCH  19  20
ENDBRANCH  16  19
ENDBRANCH  12  13
ENDBRANCH   9  12
BRANCH   8  23
ATOM     23  O4  <0> d   1       0.566  -6.293   6.846  0.00  0.00    -0.360 OA
ATOM     24  H26 <0> d   1       1.460  -6.183   7.198  0.00  0.00     0.217 HD
ENDBRANCH   8  23
BRANCH   1  25
ATOM     25  C5  <0> d   1       0.044  -2.774  -0.014  0.00  0.00    -0.033 A 
ATOM     26  C4  <0> d   1       0.022  -2.077   1.200  0.00  0.00     0.012 A 
ATOM     27  C3  <0> d   1       0.009  -0.699   1.198  0.00  0.00     0.007 A 
ATOM     28  C2  <0> d   1       0.017  -0.004   0.001  0.00  0.00    -0.062 A 
ATOM     29  C1  <0> d   1       0.003   1.503   0.009  0.00  0.00     0.048 C 
ATOM     30  C7  <0> d   1       0.034  -0.686  -1.204  0.00  0.00     0.007 A 
ATOM     31  C6  <0> d   1       0.053  -2.064  -1.220  0.00  0.00     0.012 A 
ENDBRANCH   1  25
TORSDOF 7
