REMARK  4 active torsions:
REMARK  status: ('A' for Active; 'I' for Inactive)
REMARK    1  A    between atoms: N2_5  and  C6_8 
REMARK    2  A    between atoms: C6_8  and  C7_9 
REMARK    3  A    between atoms: C8_10  and  O3_30 
REMARK    4  A    between atoms: C14_17  and  C15_18 
ROOT
ATOM      1  C7  <0> d   1       2.188  -4.533   1.006  0.00  0.00     0.038 A 
ATOM      2  C8  <0> d   1       3.529  -4.739   0.723  0.00  0.00     0.076 A 
ATOM      3  C9  <0> d   1       4.397  -5.197   1.710  0.00  0.00     0.038 A 
ATOM      4  C10 <0> d   1       3.935  -5.448   2.971  0.00  0.00     0.021 A 
ATOM      5  C11 <0> d   1       2.588  -5.245   3.270  0.00  0.00     0.051 A 
ATOM      6  C12 <0> d   1       1.704  -4.778   2.283  0.00  0.00     0.101 A 
ATOM      7  O1  <0> d   1       0.472  -4.660   2.824  0.00  0.00    -0.305 OA
ATOM      8  C13 <0> d   1       0.469  -5.016   4.130  0.00  0.00     0.128 A 
ATOM      9  C14 <0> d   1      -0.616  -5.008   4.955  0.00  0.00     0.055 C 
ATOM     10  C23 <0> d   1       1.783  -5.413   4.492  0.00  0.00     0.218 A 
ATOM     11  O2  <0> d   1       2.166  -5.798   5.585  0.00  0.00    -0.284 OA
ENDROOT
BRANCH   9  12
ATOM     12  C15 <0> d   1      -1.919  -4.587   4.444  0.00  0.00    -0.005 A 
ATOM     13  C18 <0> d   1      -3.186  -4.519   5.198  0.00  0.00     0.002 A 
ATOM     14  C17 <0> d   1      -4.152  -4.058   4.290  0.00  0.00     0.043 A 
ATOM     15  C19 <0> d   1      -3.542  -4.802   6.513  0.00  0.00     0.014 A 
ATOM     16  N3  <0> d   1      -3.528  -3.868   3.073  0.00  0.00    -0.364 N 
ATOM     17  C22 <0> d   1      -5.464  -3.886   4.720  0.00  0.00     0.030 A 
ATOM     18  C16 <0> d   1      -2.211  -4.178   3.160  0.00  0.00     0.100 A 
ATOM     19  H1  <0> d   1      -3.970  -3.555   2.268  0.00  0.00     0.165 HD
ATOM     20  C21 <0> d   1      -5.805  -4.179   6.022  0.00  0.00     0.002 A 
ATOM     21  C20 <0> d   1      -4.848  -4.631   6.919  0.00  0.00     0.001 A 
ENDBRANCH   9  12
BRANCH   1  22
ATOM     22  C6  <0> d   1       1.257  -4.037  -0.071  0.00  0.00     0.317 C 
BRANCH  22  23
ATOM     23  N2  <0> d   1       1.237  -2.568  -0.063  0.00  0.00     0.096 N 
ATOM     24  C3  <0> d   1       0.533  -2.045  -1.242  0.00  0.00     0.303 C 
ATOM     25  C2  <0> d   1       0.603  -0.516  -1.238  0.00  0.00     0.302 C 
ATOM     26  N1  <0> d   1       0.002  -0.004   0.002  0.00  0.00     0.087 N 
ATOM     27  C1  <0> d   1      -0.018   1.465   0.010  0.00  0.00     0.310 C 
ATOM     28  C5  <0> d   1       0.706  -0.528   1.181  0.00  0.00     0.302 C 
ATOM     29  C4  <0> d   1       0.636  -2.057   1.176  0.00  0.00     0.303 C 
ENDBRANCH  22  23
ENDBRANCH   1  22
BRANCH   2  30
ATOM     30  O3  <0> d   1       3.999  -4.493  -0.526  0.00  0.00    -0.360 OA
ATOM     31  H23 <0> d   1       4.312  -3.587  -0.658  0.00  0.00     0.217 HD
ENDBRANCH   2  30
TORSDOF 4
