REMARK  3 active torsions:
REMARK  status: ('A' for Active; 'I' for Inactive)
REMARK    1  A    between atoms: N1_5  and  C7_8 
REMARK    2  A    between atoms: C7_8  and  C8_9 
REMARK    3  A    between atoms: C15_17  and  C17_20 
ROOT
ATOM      1  C8  <0> d   1      -7.212  -3.041  -0.150  0.00  0.00     0.039 A 
ATOM      2  C9  <0> d   1      -8.255  -2.815   0.732  0.00  0.00     0.118 A 
ATOM      3  C10 <0> d   1      -8.157  -1.824   1.706  0.00  0.00     0.041 A 
ATOM      4  C11 <0> d   1      -7.028  -1.062   1.804  0.00  0.00     0.021 A 
ATOM      5  C12 <0> d   1      -5.969  -1.277   0.922  0.00  0.00     0.050 A 
ATOM      6  C13 <0> d   1      -6.057  -2.275  -0.065  0.00  0.00     0.100 A 
ATOM      7  O1  <0> d   1      -5.032  -2.482  -0.915  0.00  0.00    -0.320 OA
ATOM      8  C14 <0> d   1      -3.900  -1.774  -0.887  0.00  0.00     0.159 A 
ATOM      9  C15 <0> d   1      -3.680  -0.785   0.018  0.00  0.00     0.048 A 
ATOM     10  C16 <0> d   1      -4.735  -0.474   0.997  0.00  0.00     0.197 A 
ATOM     11  O2  <0> d   1      -4.596   0.406   1.829  0.00  0.00    -0.286 OA
ATOM     12  O5  <0> d   1      -9.382  -3.566   0.647  0.00  0.00    -0.191 OA
ENDROOT
BRANCH   9  13
ATOM     13  C17 <0> d   1      -2.403  -0.030   0.016  0.00  0.00    -0.017 A 
ATOM     14  C22 <0> d   1      -1.189  -0.712   0.004  0.00  0.00     0.052 A 
ATOM     15  C21 <0> d   1       0.002  -0.004   0.002  0.00  0.00     0.102 A 
ATOM     16  C20 <0> d   1      -0.017   1.387   0.010  0.00  0.00     0.102 A 
ATOM     17  O3  <0> d   1       1.181  -0.685  -0.007  0.00  0.00    -0.346 OA
ATOM     18  C19 <0> d   1      -1.228   2.065   0.019  0.00  0.00     0.040 A 
ATOM     19  O4  <0> d   1       1.144   2.098   0.002  0.00  0.00    -0.346 OA
ATOM     20  C18 <0> d   1      -2.416   1.364   0.026  0.00  0.00     0.015 A 
ATOM     21  C24 <0> d   1       2.335   1.391   0.365  0.00  0.00     0.202 C 
ATOM     22  C23 <0> d   1       2.347   0.053  -0.387  0.00  0.00     0.202 C 
ENDBRANCH   9  13
BRANCH   1  23
ATOM     23  C7  <0> d   1      -7.330  -4.116  -1.200  0.00  0.00     0.279 C 
BRANCH  23  24
ATOM     24  N1  <0> d   1      -6.822  -5.385  -0.661  0.00  0.00    -0.067 N 
ATOM     25  C4  <0> d   1      -7.136  -6.501  -1.562  0.00  0.00     0.235 C 
ATOM     26  C3  <0> d   1      -6.470  -7.778  -1.044  0.00  0.00     0.032 C 
ATOM     27  C2  <0> d   1      -6.980  -8.078   0.368  0.00  0.00    -0.015 C 
ATOM     28  C1  <0> d   1      -6.272  -9.319   0.915  0.00  0.00     0.010 C 
ATOM     29  C6  <0> d   1      -6.684  -6.880   1.274  0.00  0.00     0.032 C 
ATOM     30  C5  <0> d   1      -7.345  -5.629   0.689  0.00  0.00     0.235 C 
ATOM     31  H25 <0> d   1      -5.728  -5.309  -0.589  0.00  0.00     0.280 HD
ENDBRANCH  23  24
ENDBRANCH   1  23
TORSDOF 3
