REMARK  5 active torsions:
REMARK  status: ('A' for Active; 'I' for Inactive)
REMARK    1  A    between atoms: C9_10  and  C10_11 
REMARK    2  A    between atoms: N1_21  and  C19_24 
REMARK    3  A    between atoms: C19_24  and  C20_25 
REMARK    4  A    between atoms: C20_25  and  C21_26 
REMARK    5  A    between atoms: C21_26  and  N2_27 
ROOT
ATOM      1  C1  <0> d   1       0.081   1.496   0.006  0.00  0.00     0.054 C 
ATOM      2  C2  <0> d   1       0.093  -0.011   0.000  0.00  0.00     0.007 A 
ATOM      3  C3  <0> d   1       0.114  -0.697  -1.206  0.00  0.00     0.087 A 
ATOM      4  C4  <0> d   1       0.126  -2.088  -1.224  0.00  0.00     0.005 A 
ATOM      5  C5  <0> d   1       0.115  -2.789  -0.049  0.00  0.00     0.030 A 
ATOM      6  C6  <0> d   1       0.092  -2.111   1.169  0.00  0.00     0.052 A 
ATOM      7  C7  <0> d   1       0.088  -0.707   1.201  0.00  0.00     0.099 A 
ATOM      8  O1  <0> d   1       0.076  -0.280   2.482  0.00  0.00    -0.305 OA
ATOM      9  C8  <0> d   1       0.074  -1.312   3.358  0.00  0.00     0.127 A 
ATOM     10  C9  <0> d   1       0.061  -1.216   4.710  0.00  0.00     0.053 C 
ATOM     11  C16 <0> d   1       0.075  -2.558   2.574  0.00  0.00     0.218 A 
ATOM     12  O2  <0> d   1       0.075  -3.703   2.993  0.00  0.00    -0.284 OA
ATOM     13  C17 <0> d   1       0.157  -2.843  -2.529  0.00  0.00     0.316 C 
ATOM     14  N1  <0> d   1      -0.247  -1.949  -3.624  0.00  0.00     0.116 N 
ATOM     15  C18 <0> d   1       0.508  -0.687  -3.553  0.00  0.00     0.447 C 
ATOM     16  O3  <0> d   1       0.121   0.010  -2.366  0.00  0.00    -0.320 OA
ENDROOT
BRANCH  14  17
ATOM     17  C19 <0> d   1      -0.064  -2.599  -4.928  0.00  0.00     0.277 C 
BRANCH  17  18
ATOM     18  C20 <0> d   1      -0.719  -1.748  -6.018  0.00  0.00     0.058 C 
BRANCH  18  19
ATOM     19  C21 <0> d   1      -0.529  -2.425  -7.377  0.00  0.00     0.236 C 
BRANCH  19  20
ATOM     20  N2  <0> d   1      -1.158  -1.608  -8.423  0.00  0.00    -0.067 N 
ATOM     21  C25 <0> d   1      -0.874  -2.194  -9.740  0.00  0.00     0.261 C 
ATOM     22  C24 <0> d   1      -1.530  -1.341 -10.829  0.00  0.00     0.195 C 
ATOM     23  O4  <0> d   1      -2.937  -1.263 -10.582  0.00  0.00    -0.388 OA
ATOM     24  C23 <0> d   1      -3.265  -0.720  -9.300  0.00  0.00     0.195 C 
ATOM     25  C22 <0> d   1      -2.611  -1.571  -8.209  0.00  0.00     0.261 C 
ATOM     26  H28 <0> d   1      -0.789  -0.670  -8.386  0.00  0.00     0.280 HD
ENDBRANCH  19  20
ENDBRANCH  18  19
ENDBRANCH  17  18
ENDBRANCH  14  17
BRANCH  10  27
ATOM     27  C10 <0> d   1       0.161   0.102   5.354  0.00  0.00    -0.030 A 
ATOM     28  C15 <0> d   1       0.277   0.197   6.745  0.00  0.00     0.053 A 
ATOM     29  C14 <0> d   1       0.378   1.438   7.342  0.00  0.00     0.117 A 
ATOM     30  C13 <0> d   1       0.351   2.587   6.566  0.00  0.00     0.042 A 
ATOM     31  F1  <0> d   1       0.497   1.534   8.684  0.00  0.00    -0.206 F 
ATOM     32  C12 <0> d   1       0.231   2.499   5.190  0.00  0.00     0.004 A 
ATOM     33  C11 <0> d   1       0.136   1.267   4.580  0.00  0.00     0.011 A 
ENDBRANCH  10  27
TORSDOF 5
