REMARK  3 active torsions:
REMARK  status: ('A' for Active; 'I' for Inactive)
REMARK    1  A    between atoms: C5_6  and  C6_7 
REMARK    2  A    between atoms: C13_15  and  C15_18 
REMARK    3  A    between atoms: C15_18  and  N1_19 
ROOT
ATOM      1  C6  <0> d   1      -1.230  -3.331  -0.004  0.00  0.00     0.060 C 
ATOM      2  C7  <0> d   1      -0.491  -2.183  -0.005  0.00  0.00     0.128 A 
ATOM      3  C8  <0> d   1       0.927  -2.110  -0.018  0.00  0.00     0.218 A 
ATOM      4  O1  <0> d   1       1.718  -3.039  -0.031  0.00  0.00    -0.284 OA
ATOM      5  C9  <0> d   1       1.239  -0.670  -0.013  0.00  0.00     0.051 A 
ATOM      6  C10 <0> d   1       2.430   0.056  -0.020  0.00  0.00     0.021 A 
ATOM      7  C11 <0> d   1       2.395   1.421  -0.012  0.00  0.00     0.041 A 
ATOM      8  C12 <0> d   1       1.175   2.091   0.002  0.00  0.00     0.118 A 
ATOM      9  C13 <0> d   1      -0.017   1.384   0.010  0.00  0.00     0.041 A 
ATOM     10  C14 <0> d   1       0.002  -0.004   0.002  0.00  0.00     0.101 A 
ATOM     11  O2  <0> d   1      -0.987  -0.924   0.006  0.00  0.00    -0.305 OA
ATOM     12  O4  <0> d   1       1.152   3.449   0.010  0.00  0.00    -0.191 OA
ENDROOT
BRANCH   1  13
ATOM     13  C5  <0> d   1      -2.641  -3.262   0.009  0.00  0.00     0.013 A 
ATOM     14  C2  <0> d   1      -3.570  -4.299   0.007  0.00  0.00    -0.044 A 
ATOM     15  C1  <0> d   1      -3.138  -5.743  -0.013  0.00  0.00     0.049 C 
ATOM     16  C3  <0> d   1      -4.895  -3.947   0.027  0.00  0.00     0.015 A 
ATOM     17  C4  <0> d   1      -5.232  -2.630   0.036  0.00  0.00     0.051 A 
ATOM     18  S1  <0> d   1      -3.697  -1.825   0.026  0.00  0.00    -0.102 SA
ENDBRANCH   1  13
BRANCH   9  19
ATOM     19  C15 <0> d   1      -1.331   2.121   0.020  0.00  0.00     0.317 C 
BRANCH  19  20
ATOM     20  N1  <0> d   1      -1.752   2.353   1.408  0.00  0.00     0.097 N 
ATOM     21  C19 <0> d   1      -2.900   3.269   1.465  0.00  0.00     0.299 C 
ATOM     22  C18 <0> d   1      -3.267   3.529   2.928  0.00  0.00     0.198 C 
ATOM     23  O3  <0> d   1      -3.536   2.283   3.576  0.00  0.00    -0.388 OA
ATOM     24  C17 <0> d   1      -2.439   1.367   3.540  0.00  0.00     0.198 C 
ATOM     25  C16 <0> d   1      -2.064   1.084   2.083  0.00  0.00     0.299 C 
ENDBRANCH  19  20
ENDBRANCH   9  19
TORSDOF 3
