REMARK  1 active torsions:
REMARK  status: ('A' for Active; 'I' for Inactive)
REMARK    1  A    between atoms: C9_10  and  C10_11 
ROOT
ATOM      1  C1  <0> d   1       3.699   9.635   0.011  0.00  0.00     0.054 C 
ATOM      2  C2  <0> d   1       2.314  10.228   0.028  0.00  0.00     0.009 A 
ATOM      3  C3  <0> d   1       2.148  11.604   0.036  0.00  0.00     0.116 A 
ATOM      4  C4  <0> d   1       0.874  12.163   0.052  0.00  0.00     0.041 A 
ATOM      5  C5  <0> d   1      -0.231  11.359   0.059  0.00  0.00     0.021 A 
ATOM      6  C6  <0> d   1      -0.080   9.972   0.051  0.00  0.00     0.051 A 
ATOM      7  C7  <0> d   1       1.202   9.397   0.035  0.00  0.00     0.099 A 
ATOM      8  O1  <0> d   1       1.075   8.053   0.036  0.00  0.00    -0.305 OA
ATOM      9  C8  <0> d   1      -0.226   7.678   0.042  0.00  0.00     0.128 A 
ATOM     10  C9  <0> d   1      -0.685   6.396   0.040  0.00  0.00     0.055 C 
ATOM     11  C19 <0> d   1      -1.032   8.848   0.055  0.00  0.00     0.218 A 
ATOM     12  O2  <0> d   1      -2.250   8.908   0.067  0.00  0.00    -0.284 OA
ATOM     13  O3  <0> d   1       3.238  12.413   0.029  0.00  0.00    -0.192 OA
ENDROOT
BRANCH  10  14
ATOM     14  C10 <0> d   1       0.260   5.281   0.026  0.00  0.00    -0.005 A 
ATOM     15  C13 <0> d   1      -0.067   3.842   0.022  0.00  0.00     0.002 A 
ATOM     16  C12 <0> d   1       1.163   3.166   0.007  0.00  0.00     0.045 A 
ATOM     17  C14 <0> d   1      -1.260   3.124   0.031  0.00  0.00     0.014 A 
ATOM     18  N1  <0> d   1       2.164   4.115   0.002  0.00  0.00    -0.360 N 
ATOM     19  C17 <0> d   1       1.175   1.774   0.000  0.00  0.00     0.030 A 
ATOM     20  C11 <0> d   1       1.636   5.364   0.013  0.00  0.00     0.103 A 
ATOM     21  C18 <0> d   1       3.598   3.816  -0.013  0.00  0.00     0.156 C 
ATOM     22  C16 <0> d   1      -0.013   1.076   0.008  0.00  0.00     0.002 A 
ATOM     23  C15 <0> d   1      -1.227   1.746   0.017  0.00  0.00     0.001 A 
ENDBRANCH  10  14
TORSDOF 1
