REMARK  4 active torsions:
REMARK  status: ('A' for Active; 'I' for Inactive)
REMARK    1  A    between atoms: N2_5  and  C6_8 
REMARK    2  A    between atoms: C6_8  and  C7_9 
REMARK    3  A    between atoms: C8_10  and  O3_27 
REMARK    4  A    between atoms: C14_17  and  C15_18 
ROOT
ATOM      1  C7  <0> d   1       0.013  -3.741   2.749  0.00  0.00     0.038 A 
ATOM      2  C8  <0> d   1       1.369  -3.788   3.033  0.00  0.00     0.076 A 
ATOM      3  C9  <0> d   1       1.821  -4.318   4.238  0.00  0.00     0.038 A 
ATOM      4  C10 <0> d   1       0.929  -4.800   5.154  0.00  0.00     0.021 A 
ATOM      5  C11 <0> d   1      -0.438  -4.759   4.881  0.00  0.00     0.051 A 
ATOM      6  C12 <0> d   1      -0.907  -4.221   3.672  0.00  0.00     0.101 A 
ATOM      7  O1  <0> d   1      -2.256  -4.284   3.638  0.00  0.00    -0.305 OA
ATOM      8  C13 <0> d   1      -2.763  -4.835   4.766  0.00  0.00     0.128 A 
ATOM      9  C14 <0> d   1      -4.077  -5.037   5.039  0.00  0.00     0.054 C 
ATOM     10  C21 <0> d   1      -1.630  -5.185   5.636  0.00  0.00     0.218 A 
ATOM     11  O2  <0> d   1      -1.669  -5.701   6.740  0.00  0.00    -0.284 OA
ENDROOT
BRANCH   1  12
ATOM     12  C6  <0> d   1      -0.463  -3.164   1.440  0.00  0.00     0.317 C 
BRANCH  12  13
ATOM     13  N2  <0> d   1      -0.691  -1.721   1.596  0.00  0.00     0.096 N 
ATOM     14  C3  <0> d   1      -1.376  -1.166   0.420  0.00  0.00     0.303 C 
ATOM     15  C2  <0> d   1      -1.665   0.318   0.655  0.00  0.00     0.302 C 
ATOM     16  N1  <0> d   1      -0.403   1.026   0.907  0.00  0.00     0.087 N 
ATOM     17  C1  <0> d   1      -0.630   2.469   1.063  0.00  0.00     0.310 C 
ATOM     18  C5  <0> d   1       0.283   0.472   2.083  0.00  0.00     0.302 C 
ATOM     19  C4  <0> d   1       0.572  -1.013   1.848  0.00  0.00     0.303 C 
ENDBRANCH  12  13
ENDBRANCH   1  12
BRANCH   2  20
ATOM     20  O3  <0> d   1       2.262  -3.312   2.129  0.00  0.00    -0.360 OA
ATOM     21  H21 <0> d   1       2.471  -2.374   2.238  0.00  0.00     0.217 HD
ENDBRANCH   2  20
BRANCH   9  22
ATOM     22  C15 <0> d   1      -5.105  -4.502   4.136  0.00  0.00    -0.012 A 
ATOM     23  C20 <0> d   1      -6.434  -4.394   4.568  0.00  0.00     0.044 A 
ATOM     24  C19 <0> d   1      -7.392  -3.885   3.715  0.00  0.00     0.024 A 
ATOM     25 Cl1  <0> d   1      -6.871  -4.893   6.172  0.00  0.00    -0.083 Cl
ATOM     26  C18 <0> d   1      -7.046  -3.493   2.434  0.00  0.00     0.002 A 
ATOM     27  C17 <0> d   1      -5.736  -3.601   1.999  0.00  0.00     0.001 A 
ATOM     28  C16 <0> d   1      -4.765  -4.102   2.839  0.00  0.00     0.013 A 
ENDBRANCH   9  22
TORSDOF 4
