REMARK  9 active torsions:
REMARK  status: ('A' for Active; 'I' for Inactive)
REMARK    1  A    between atoms: C2_2  and  C3_3 
REMARK    2  A    between atoms: C3_3  and  O1_4 
REMARK    3  A    between atoms: O1_4  and  C4_5 
REMARK    4  A    between atoms: C4_5  and  C5_7 
REMARK    5  A    between atoms: C8_10  and  O3_13 
REMARK    6  A    between atoms: O3_13  and  C11_14 
REMARK    7  A    between atoms: C18_23  and  O6_33 
REMARK    8  A    between atoms: C19_24  and  C20_25 
REMARK    9  A    between atoms: C20_25  and  N1_26 
ROOT
ATOM      1  C11 <0> d   1      -4.204   0.285   5.385  0.00  0.00     0.149 A 
ATOM      2  C12 <0> d   1      -3.902  -0.023   4.108  0.00  0.00     0.184 A 
ATOM      3  O4  <0> d   1      -3.043   0.695   3.373  0.00  0.00    -0.318 OA
ATOM      4  C13 <0> d   1      -2.413   1.784   3.857  0.00  0.00     0.100 A 
ATOM      5  C14 <0> d   1      -2.651   2.199   5.180  0.00  0.00     0.051 A 
ATOM      6  C15 <0> d   1      -3.595   1.417   5.997  0.00  0.00     0.220 A 
ATOM      7  O5  <0> d   1      -3.843   1.726   7.151  0.00  0.00    -0.284 OA
ATOM      8  C16 <0> d   1      -2.006   3.325   5.692  0.00  0.00     0.021 A 
ATOM      9  C17 <0> d   1      -1.138   4.026   4.903  0.00  0.00     0.038 A 
ATOM     10  C18 <0> d   1      -0.891   3.619   3.593  0.00  0.00     0.076 A 
ATOM     11  C19 <0> d   1      -1.529   2.507   3.069  0.00  0.00     0.035 A 
ENDROOT
BRANCH   1  12
ATOM     12  O3  <0> d   1      -5.085  -0.481   6.085  0.00  0.00    -0.305 OA
BRANCH  12  13
ATOM     13  C8  <0> d   1      -5.628  -1.557   5.462  0.00  0.00     0.076 A 
ATOM     14  C7  <0> d   1      -4.997  -2.793   5.536  0.00  0.00     0.038 A 
ATOM     15  C6  <0> d   1      -5.545  -3.887   4.905  0.00  0.00     0.020 A 
ATOM     16  C5  <0> d   1      -6.738  -3.754   4.189  0.00  0.00     0.039 A 
ATOM     17  C10 <0> d   1      -7.370  -2.509   4.117  0.00  0.00     0.020 A 
ATOM     18  C9  <0> d   1      -6.818  -1.421   4.755  0.00  0.00     0.038 A 
BRANCH  16  19
ATOM     19  C4  <0> d   1      -7.328  -4.923   3.512  0.00  0.00     0.293 C 
ATOM     20  O2  <0> d   1      -6.778  -6.004   3.575  0.00  0.00    -0.259 OA
BRANCH  19  21
ATOM     21  O1  <0> d   1      -8.478  -4.792   2.822  0.00  0.00    -0.318 OA
BRANCH  21  22
ATOM     22  C3  <0> d   1      -9.002  -5.985   2.180  0.00  0.00     0.178 C 
BRANCH  22  23
ATOM     23  C2  <0> d   1     -10.302  -5.643   1.451  0.00  0.00     0.022 C 
ATOM     24  C1  <0> d   1     -10.853  -6.900   0.775  0.00  0.00     0.007 C 
ENDBRANCH  22  23
ENDBRANCH  21  22
ENDBRANCH  19  21
ENDBRANCH  16  19
ENDBRANCH  12  13
ENDBRANCH   1  12
BRANCH  11  25
ATOM     25  C20 <0> d   1      -1.258   2.080   1.649  0.00  0.00     0.279 C 
BRANCH  25  26
ATOM     26  N1  <0> d   1      -2.214   2.739   0.749  0.00  0.00    -0.064 N 
ATOM     27  C24 <0> d   1      -2.330   4.171   1.060  0.00  0.00     0.265 C 
ATOM     28  C23 <0> d   1      -3.390   4.803   0.156  0.00  0.00     0.299 C 
ATOM     29  N2  <0> d   1      -3.014   4.602  -1.251  0.00  0.00     0.087 N 
ATOM     30  C22 <0> d   1      -2.899   3.170  -1.562  0.00  0.00     0.299 C 
ATOM     31  C25 <0> d   1      -3.969   5.261  -2.151  0.00  0.00     0.310 C 
ATOM     32  C21 <0> d   1      -1.839   2.538  -0.657  0.00  0.00     0.265 C 
ATOM     33  H29 <0> d   1      -3.200   2.277   0.907  0.00  0.00     0.280 HD
ENDBRANCH  25  26
ENDBRANCH  11  25
BRANCH  10  34
ATOM     34  O6  <0> d   1      -0.022   4.322   2.823  0.00  0.00    -0.360 OA
ATOM     35  H28 <0> d   1       0.177   4.005   1.789  0.00  0.00     0.217 HD
ENDBRANCH  10  34
TORSDOF 9
