REMARK  6 active torsions:
REMARK  status: ('A' for Active; 'I' for Inactive)
REMARK    1  A    between atoms: C3_3  and  C18_24 
REMARK    2  A    between atoms: C4_4  and  C5_8 
REMARK    3  A    between atoms: C8_11  and  O2_15 
REMARK    4  A    between atoms: O2_15  and  C11_16 
REMARK    5  A    between atoms: C11_16  and  C12_17 
REMARK    6  A    between atoms: C12_17  and  N3_18 
ROOT
ATOM      1  C5  <0> d   1       0.175  -3.051   2.325  0.00  0.00     0.032 A 
ATOM      2  C6  <0> d   1      -0.140  -2.872   3.671  0.00  0.00     0.019 A 
ATOM      3  C7  <0> d   1      -0.222  -3.963   4.510  0.00  0.00     0.038 A 
ATOM      4  C8  <0> d   1       0.007  -5.242   4.017  0.00  0.00     0.071 A 
ATOM      5  C9  <0> d   1       0.321  -5.428   2.679  0.00  0.00     0.077 A 
ATOM      6  C10 <0> d   1       0.401  -4.339   1.829  0.00  0.00     0.122 A 
ATOM      7  O1  <0> d   1       0.702  -4.520   0.516  0.00  0.00    -0.191 OA
ENDROOT
BRANCH   1   8
ATOM      8  C4  <0> d   1       0.264  -1.879   1.421  0.00  0.00     0.103 A 
ATOM      9  C3  <0> d   1       0.957  -0.671   1.685  0.00  0.00     0.029 A 
ATOM     10  C2  <0> d   1       0.791   0.141   0.603  0.00  0.00     0.037 A 
ATOM     11  C1  <0> d   1       1.353   1.530   0.442  0.00  0.00     0.070 C 
ATOM     12  N2  <0> d   1       0.029  -0.516  -0.294  0.00  0.00    -0.281 N 
ATOM     13  N1  <0> d   1      -0.284  -1.776   0.230  0.00  0.00    -0.173 NA
ATOM     14  H1  <0> d   1      -0.252  -0.175  -1.158  0.00  0.00     0.189 HD
BRANCH   9  15
ATOM     15  C18 <0> d   1       1.722  -0.349   2.915  0.00  0.00    -0.022 A 
ATOM     16  C23 <0> d   1       1.280   0.658   3.771  0.00  0.00     0.012 A 
ATOM     17  C22 <0> d   1       1.992   0.949   4.916  0.00  0.00     0.001 A 
ATOM     18  C21 <0> d   1       3.150   0.251   5.209  0.00  0.00     0.000 A 
ATOM     19  C20 <0> d   1       3.597  -0.745   4.360  0.00  0.00     0.001 A 
ATOM     20  C19 <0> d   1       2.889  -1.049   3.215  0.00  0.00     0.012 A 
ENDBRANCH   9  15
ENDBRANCH   1   8
BRANCH   4  21
ATOM     21  O2  <0> d   1      -0.076  -6.313   4.849  0.00  0.00    -0.349 OA
BRANCH  21  22
ATOM     22  C11 <0> d   1       0.172  -7.599   4.277  0.00  0.00     0.203 C 
BRANCH  22  23
ATOM     23  C12 <0> d   1       0.035  -8.673   5.358  0.00  0.00     0.261 C 
BRANCH  23  24
ATOM     24  N3  <0> d   1      -1.352  -8.705   5.843  0.00  0.00    -0.069 N 
ATOM     25  C17 <0> d   1      -2.236  -9.157   4.763  0.00  0.00     0.235 C 
ATOM     26  C16 <0> d   1      -3.690  -9.115   5.238  0.00  0.00     0.028 C 
ATOM     27  C15 <0> d   1      -3.853 -10.035   6.451  0.00  0.00     0.003 C 
ATOM     28  C14 <0> d   1      -2.872  -9.599   7.544  0.00  0.00     0.028 C 
ATOM     29  C13 <0> d   1      -1.448  -9.624   6.984  0.00  0.00     0.235 C 
ATOM     30  H27 <0> d   1      -1.626  -7.779   6.136  0.00  0.00     0.280 HD
ENDBRANCH  23  24
ENDBRANCH  22  23
ENDBRANCH  21  22
ENDBRANCH   4  21
TORSDOF 6
