REMARK  5 active torsions:
REMARK  status: ('A' for Active; 'I' for Inactive)
REMARK    1  A    between atoms: C2_2  and  N1_3 
REMARK    2  A    between atoms: N2_6  and  C7_9 
REMARK    3  A    between atoms: C7_9  and  C8_10 
REMARK    4  A    between atoms: C9_11  and  O3_29 
REMARK    5  A    between atoms: C15_18  and  C16_19 
ROOT
ATOM      1  C8  <0> d   1       2.501   3.562   1.584  0.00  0.00     0.038 A 
ATOM      2  C9  <0> d   1       2.273   4.459   0.553  0.00  0.00     0.076 A 
ATOM      3  C10 <0> d   1       2.286   5.830   0.792  0.00  0.00     0.038 A 
ATOM      4  C11 <0> d   1       2.534   6.306   2.049  0.00  0.00     0.021 A 
ATOM      5  C12 <0> d   1       2.770   5.414   3.095  0.00  0.00     0.051 A 
ATOM      6  C13 <0> d   1       2.756   4.028   2.867  0.00  0.00     0.101 A 
ATOM      7  O1  <0> d   1       3.009   3.374   4.022  0.00  0.00    -0.305 OA
ATOM      8  C14 <0> d   1       3.202   4.229   5.053  0.00  0.00     0.128 A 
ATOM      9  C15 <0> d   1       3.475   3.887   6.338  0.00  0.00     0.054 C 
ATOM     10  C22 <0> d   1       3.062   5.596   4.529  0.00  0.00     0.218 A 
ATOM     11  O2  <0> d   1       3.164   6.645   5.142  0.00  0.00    -0.284 OA
ENDROOT
BRANCH   1  12
ATOM     12  C7  <0> d   1       2.480   2.080   1.312  0.00  0.00     0.317 C 
BRANCH  12  13
ATOM     13  N2  <0> d   1       1.117   1.566   1.503  0.00  0.00     0.096 N 
ATOM     14  C4  <0> d   1       0.200   2.117   0.495  0.00  0.00     0.300 C 
ATOM     15  C3  <0> d   1      -1.220   1.622   0.777  0.00  0.00     0.265 C 
ATOM     16  N1  <0> d   1      -1.238   0.153   0.753  0.00  0.00    -0.068 N 
ATOM     17  C6  <0> d   1      -0.321  -0.398   1.761  0.00  0.00     0.265 C 
ATOM     18  H23 <0> d   1      -0.890  -0.176  -0.237  0.00  0.00     0.280 HD
ATOM     19  C5  <0> d   1       1.099   0.097   1.480  0.00  0.00     0.300 C 
BRANCH  16  20
ATOM     20  C2  <0> d   1      -2.601  -0.361   0.945  0.00  0.00     0.230 C 
ATOM     21  C1  <0> d   1      -2.623  -1.865   0.668  0.00  0.00     0.034 C 
ENDBRANCH  16  20
ENDBRANCH  12  13
ENDBRANCH   1  12
BRANCH   2  22
ATOM     22  O3  <0> d   1       2.031   3.997  -0.700  0.00  0.00    -0.360 OA
ATOM     23  H22 <0> d   1       1.849   4.705  -1.522  0.00  0.00     0.217 HD
ENDBRANCH   2  22
BRANCH   9  24
ATOM     24  C16 <0> d   1       3.432   2.478   6.747  0.00  0.00    -0.012 A 
ATOM     25  C21 <0> d   1       3.351   2.141   8.105  0.00  0.00     0.046 A 
ATOM     26  C20 <0> d   1       3.311   0.814   8.481  0.00  0.00     0.048 A 
ATOM     27 Cl1  <0> d   1       3.301   3.389   9.310  0.00  0.00    -0.083 Cl
ATOM     28  C19 <0> d   1       3.351  -0.183   7.520  0.00  0.00     0.035 A 
ATOM     29  C18 <0> d   1       3.432   0.143   6.175  0.00  0.00     0.024 A 
ATOM     30 Cl2  <0> d   1       3.300  -1.850   8.003  0.00  0.00    -0.084 Cl
ATOM     31  C17 <0> d   1       3.467   1.463   5.783  0.00  0.00     0.015 A 
ENDBRANCH   9  24
TORSDOF 5
