REMARK  5 active torsions:
REMARK  status: ('A' for Active; 'I' for Inactive)
REMARK    1  A    between atoms: C2_2  and  C4_4 
REMARK    2  A    between atoms: C7_7  and  C10_10 
REMARK    3  A    between atoms: C16_17  and  O3_29 
REMARK    4  A    between atoms: C17_18  and  C19_21 
REMARK    5  A    between atoms: C19_21  and  N1_22 
ROOT
ATOM      1  C10 <0> d   1       2.692  -1.858  -4.727  0.00  0.00     0.053 C 
ATOM      2  C11 <0> d   1       3.858  -2.542  -4.619  0.00  0.00     0.127 A 
ATOM      3  C12 <0> d   1       4.714  -2.982  -5.733  0.00  0.00     0.218 A 
ATOM      4  O1  <0> d   1       4.530  -2.816  -6.926  0.00  0.00    -0.284 OA
ATOM      5  C13 <0> d   1       5.843  -3.671  -5.081  0.00  0.00     0.051 A 
ATOM      6  C14 <0> d   1       6.983  -4.309  -5.572  0.00  0.00     0.021 A 
ATOM      7  C15 <0> d   1       7.875  -4.871  -4.703  0.00  0.00     0.038 A 
ATOM      8  C16 <0> d   1       7.649  -4.809  -3.330  0.00  0.00     0.076 A 
ATOM      9  C17 <0> d   1       6.521  -4.178  -2.830  0.00  0.00     0.038 A 
ATOM     10  C18 <0> d   1       5.604  -3.602  -3.699  0.00  0.00     0.101 A 
ATOM     11  O2  <0> d   1       4.450  -2.937  -3.468  0.00  0.00    -0.305 OA
ENDROOT
BRANCH   1  12
ATOM     12  C7  <0> d   1       2.006  -1.379  -3.517  0.00  0.00    -0.033 A 
ATOM     13  C6  <0> d   1       2.484  -1.735  -2.251  0.00  0.00     0.012 A 
ATOM     14  C5  <0> d   1       1.835  -1.282  -1.122  0.00  0.00     0.008 A 
ATOM     15  C4  <0> d   1       0.715  -0.477  -1.238  0.00  0.00    -0.055 A 
ATOM     16  C9  <0> d   1       0.234  -0.125  -2.488  0.00  0.00     0.008 A 
ATOM     17  C8  <0> d   1       0.874  -0.565  -3.627  0.00  0.00     0.012 A 
BRANCH  15  18
ATOM     18  C2  <0> d   1       0.013   0.014   0.001  0.00  0.00     0.010 C 
ATOM     19  C1  <0> d   1      -0.467  -1.184   0.824  0.00  0.00     0.015 C 
ATOM     20  C3  <0> d   1       0.982   0.852   0.838  0.00  0.00     0.015 C 
ENDBRANCH  15  18
ENDBRANCH   1  12
BRANCH   9  21
ATOM     21  C19 <0> d   1       6.289  -4.119  -1.342  0.00  0.00     0.317 C 
BRANCH  21  22
ATOM     22  N1  <0> d   1       6.910  -2.904  -0.798  0.00  0.00     0.096 N 
ATOM     23  C23 <0> d   1       6.507  -2.687   0.599  0.00  0.00     0.303 C 
ATOM     24  C22 <0> d   1       7.109  -1.373   1.102  0.00  0.00     0.302 C 
ATOM     25  N2  <0> d   1       8.572  -1.429   0.982  0.00  0.00     0.087 N 
ATOM     26  C21 <0> d   1       8.975  -1.645  -0.415  0.00  0.00     0.302 C 
ATOM     27  C24 <0> d   1       9.192  -0.213   1.526  0.00  0.00     0.310 C 
ATOM     28  C20 <0> d   1       8.373  -2.960  -0.918  0.00  0.00     0.303 C 
ENDBRANCH  21  22
ENDBRANCH   9  21
BRANCH   8  29
ATOM     29  O3  <0> d   1       8.541  -5.371  -2.475  0.00  0.00    -0.360 OA
ATOM     30  H28 <0> d   1       9.243  -4.771  -2.189  0.00  0.00     0.217 HD
ENDBRANCH   8  29
TORSDOF 5
