REMARK  5 active torsions:
REMARK  status: ('A' for Active; 'I' for Inactive)
REMARK    1  A    between atoms: C4_4  and  O4_26 
REMARK    2  A    between atoms: C5_5  and  C15_18 
REMARK    3  A    between atoms: C9_10  and  C10_11 
REMARK    4  A    between atoms: C10_11  and  C11_12 
REMARK    5  A    between atoms: C15_18  and  N1_19 
ROOT
ATOM      1  C1  <0> d   1      -0.018   1.503   0.010  0.00  0.00     0.049 C 
ATOM      2  C2  <0> d   1       0.002  -0.004   0.002  0.00  0.00    -0.042 A 
ATOM      3  C3  <0> d   1       0.006  -0.682  -1.184  0.00  0.00     0.045 A 
ATOM      4  C4  <0> d   1       0.025  -2.074  -1.196  0.00  0.00     0.077 A 
ATOM      5  C5  <0> d   1       0.040  -2.788  -0.008  0.00  0.00     0.038 A 
ATOM      6  C6  <0> d   1       0.037  -2.114   1.205  0.00  0.00     0.102 A 
ATOM      7  C7  <0> d   1       0.023  -0.709   1.205  0.00  0.00     0.057 A 
ATOM      8  C8  <0> d   1       0.030  -0.301   2.620  0.00  0.00     0.219 A 
ATOM      9  O1  <0> d   1       0.018   0.835   3.064  0.00  0.00    -0.284 OA
ATOM     10  C9  <0> d   1       0.054  -1.516   3.358  0.00  0.00     0.129 A 
ATOM     11  O3  <0> d   1       0.048  -2.549   2.483  0.00  0.00    -0.305 OA
ENDROOT
BRANCH   5  12
ATOM     12  C15 <0> d   1       0.059  -4.295  -0.034  0.00  0.00     0.317 C 
BRANCH  12  13
ATOM     13  N1  <0> d   1       1.450  -4.767  -0.049  0.00  0.00     0.096 N 
ATOM     14  C19 <0> d   1       1.514  -6.211  -0.312  0.00  0.00     0.303 C 
ATOM     15  C18 <0> d   1       2.978  -6.647  -0.399  0.00  0.00     0.302 C 
ATOM     16  N2  <0> d   1       3.662  -6.313   0.858  0.00  0.00     0.087 N 
ATOM     17  C17 <0> d   1       3.598  -4.869   1.122  0.00  0.00     0.302 C 
ATOM     18  C20 <0> d   1       5.053  -6.785   0.843  0.00  0.00     0.310 C 
ATOM     19  C16 <0> d   1       2.134  -4.433   1.208  0.00  0.00     0.303 C 
ENDBRANCH  12  13
ENDBRANCH   5  12
BRANCH   4  20
ATOM     20  O4  <0> d   1       0.028  -2.738  -2.380  0.00  0.00    -0.360 OA
ATOM     21  H22 <0> d   1       0.912  -2.918  -2.728  0.00  0.00     0.217 HD
ENDBRANCH   4  20
BRANCH  10  22
ATOM     22  C10 <0> d   1       0.068  -1.623   4.718  0.00  0.00     0.078 C 
BRANCH  22  23
ATOM     23  C11 <0> d   1       0.091  -2.898   5.326  0.00  0.00     0.077 A 
ATOM     24  O2  <0> d   1       0.102  -4.085   4.684  0.00  0.00    -0.323 OA
ATOM     25  C14 <0> d   1       0.127  -5.078   5.585  0.00  0.00     0.142 A 
ATOM     26  C13 <0> d   1       0.124  -4.547   6.828  0.00  0.00     0.027 A 
ATOM     27  C12 <0> d   1       0.102  -3.152   6.684  0.00  0.00     0.039 A 
ENDBRANCH  22  23
ENDBRANCH  10  22
TORSDOF 5
