REMARK  4 active torsions:
REMARK  status: ('A' for Active; 'I' for Inactive)
REMARK    1  A    between atoms: C8_8  and  C11_13 
REMARK    2  A    between atoms: C11_13  and  N1_14 
REMARK    3  A    between atoms: N2_17  and  C16_20 
REMARK    4  A    between atoms: C16_20  and  C17_21 
ROOT
ATOM      1  N1  <0> d   1       1.428  -1.797   4.133  0.00  0.00     0.096 N 
ATOM      2  C12 <0> d   1       1.978  -0.789   3.216  0.00  0.00     0.300 C 
ATOM      3  C13 <0> d   1       3.429  -0.493   3.599  0.00  0.00     0.265 C 
ATOM      4  N2  <0> d   1       3.481  -0.002   4.982  0.00  0.00    -0.064 N 
ATOM      5  C14 <0> d   1       2.951  -1.029   5.888  0.00  0.00     0.265 C 
ATOM      6  C15 <0> d   1       1.495  -1.329   5.524  0.00  0.00     0.300 C 
ATOM      7  H27 <0> d   1       2.924   0.836   5.062  0.00  0.00     0.280 HD
ENDROOT
BRANCH   1   8
ATOM      8  C11 <0> d   1       0.051  -2.150   3.762  0.00  0.00     0.312 C 
BRANCH   8   9
ATOM      9  C8  <0> d   1       0.053  -2.850   2.428  0.00  0.00    -0.011 A 
ATOM     10  C6  <0> d   1       0.037  -2.087   1.176  0.00  0.00     0.007 A 
ATOM     11  C5  <0> d   1       0.041  -2.781  -0.046  0.00  0.00     0.096 A 
ATOM     12  C7  <0> d   1       0.023  -0.689   1.185  0.00  0.00     0.021 A 
ATOM     13  C4  <0> d   1       0.025  -2.065  -1.236  0.00  0.00    -0.027 A 
ATOM     14  O2  <0> d   1       0.059  -4.131  -0.052  0.00  0.00    -0.274 OA
ATOM     15  C3  <0> d   1       0.006  -0.686  -1.206  0.00  0.00     0.016 A 
ATOM     16  C24 <0> d   1       0.028  -2.792  -2.556  0.00  0.00     0.051 C 
ATOM     17  C2  <0> d   1       0.002  -0.004   0.002  0.00  0.00    -0.060 A 
ATOM     18  C1  <0> d   1      -0.018   1.503   0.010  0.00  0.00     0.048 C 
ATOM     19  C10 <0> d   1       0.074  -4.837   1.089  0.00  0.00     0.288 A 
ATOM     20  C9  <0> d   1       0.072  -4.205   2.351  0.00  0.00     0.092 A 
ATOM     21  O1  <0> d   1       0.091  -6.053   1.034  0.00  0.00    -0.260 OA
ENDBRANCH   8   9
ENDBRANCH   1   8
BRANCH   4  22
ATOM     22  C16 <0> d   1       4.872   0.299   5.344  0.00  0.00     0.273 C 
BRANCH  22  23
ATOM     23  C17 <0> d   1       4.912   0.917   6.717  0.00  0.00    -0.030 A 
ATOM     24  C22 <0> d   1       5.039   0.112   7.833  0.00  0.00     0.048 A 
ATOM     25  C21 <0> d   1       5.081   0.678   9.097  0.00  0.00     0.105 A 
ATOM     26  C20 <0> d   1       4.984   2.060   9.239  0.00  0.00     0.105 A 
ATOM     27  O3  <0> d   1       5.203   0.119  10.336  0.00  0.00    -0.323 OA
ATOM     28  C19 <0> d   1       4.851   2.861   8.117  0.00  0.00     0.040 A 
ATOM     29  O4  <0> d   1       5.045   2.367  10.568  0.00  0.00    -0.323 OA
ATOM     30  C18 <0> d   1       4.816   2.289   6.859  0.00  0.00     0.012 A 
ATOM     31  C23 <0> d   1       5.590   1.198  11.208  0.00  0.00     0.352 C 
ENDBRANCH  22  23
ENDBRANCH   4  22
TORSDOF 4
