REMARK  1 active torsions:
REMARK  status: ('A' for Active; 'I' for Inactive)
REMARK    1  A    between atoms: C5_5  and  C8_8 
ROOT
ATOM      1  C8  <0> d   1      -2.505   1.003   0.020  0.00  0.00     0.107 A 
ATOM      2  C9  <0> d   1      -3.747   1.390   0.707  0.00  0.00     0.032 A 
ATOM      3  C10 <0> d   1      -4.107   2.479   1.503  0.00  0.00     0.020 A 
ATOM      4  C11 <0> d   1      -5.372   2.561   2.012  0.00  0.00     0.041 A 
ATOM      5  C12 <0> d   1      -6.306   1.564   1.742  0.00  0.00     0.110 A 
ATOM      6  C13 <0> d   1      -5.966   0.478   0.955  0.00  0.00     0.080 A 
ATOM      7  C14 <0> d   1      -4.684   0.382   0.431  0.00  0.00     0.116 A 
ATOM      8  O1  <0> d   1      -4.071  -0.531  -0.350  0.00  0.00    -0.212 OA
ATOM      9  N1  <0> d   1      -2.739  -0.127  -0.593  0.00  0.00    -0.127 NA
ATOM     10  O2  <0> d   1      -7.560   1.658   2.256  0.00  0.00    -0.192 OA
ENDROOT
BRANCH   1  11
ATOM     11  C5  <0> d   1      -1.228   1.758   0.017  0.00  0.00    -0.004 A 
ATOM     12  C4  <0> d   1      -0.013   1.076   0.008  0.00  0.00     0.014 A 
ATOM     13  C3  <0> d   1       1.172   1.783   0.000  0.00  0.00     0.007 A 
ATOM     14  C2  <0> d   1       1.155   3.167   0.008  0.00  0.00    -0.062 A 
ATOM     15  C1  <0> d   1       2.452   3.933   0.000  0.00  0.00     0.048 C 
ATOM     16  C7  <0> d   1      -0.048   3.849   0.022  0.00  0.00     0.007 A 
ATOM     17  C6  <0> d   1      -1.240   3.151   0.029  0.00  0.00     0.014 A 
ENDBRANCH   1  11
TORSDOF 1
