REMARK  3 active torsions:
REMARK  status: ('A' for Active; 'I' for Inactive)
REMARK    1  A    between atoms: C9_10  and  C10_11 
REMARK    2  A    between atoms: C10_11  and  C11_12 
REMARK    3  A    between atoms: C16_18  and  O2_21 
ROOT
ATOM      1  C10 <0> d   1       5.903   0.578  -0.050  0.00  0.00     0.055 C 
ENDROOT
BRANCH   1   2
ATOM      2  C9  <0> d   1       4.542   0.654  -0.037  0.00  0.00     0.128 A 
ATOM      3  C8  <0> d   1       3.779   1.852  -0.024  0.00  0.00     0.219 A 
ATOM      4  C7  <0> d   1       2.373   1.413  -0.013  0.00  0.00     0.057 A 
ATOM      5  O1  <0> d   1       4.198   2.998  -0.023  0.00  0.00    -0.284 OA
ATOM      6  C2  <0> d   1       1.155   2.092   0.002  0.00  0.00    -0.042 A 
ATOM      7  C6  <0> d   1       2.403   0.008  -0.021  0.00  0.00     0.093 A 
ATOM      8  C1  <0> d   1       1.130   3.599   0.011  0.00  0.00     0.049 C 
ATOM      9  C3  <0> d   1      -0.017   1.388   0.010  0.00  0.00     0.047 A 
ATOM     10  C4  <0> d   1       0.002  -0.004   0.002  0.00  0.00     0.110 A 
ATOM     11  C5  <0> d   1       1.205  -0.692  -0.013  0.00  0.00     0.078 A 
ATOM     12  O4  <0> d   1      -1.168  -0.693   0.009  0.00  0.00    -0.192 OA
ATOM     13  O3  <0> d   1       3.691  -0.398  -0.035  0.00  0.00    -0.306 OA
ENDBRANCH   1   2
BRANCH   1  14
ATOM     14  C11 <0> d   1       6.561  -0.727  -0.063  0.00  0.00    -0.005 A 
ATOM     15  C14 <0> d   1       8.014  -0.985  -0.077  0.00  0.00     0.005 A 
ATOM     16  C13 <0> d   1       8.158  -2.381  -0.085  0.00  0.00     0.045 A 
ATOM     17  C15 <0> d   1       9.139  -0.165  -0.084  0.00  0.00     0.051 A 
ATOM     18  N1  <0> d   1       6.892  -2.935  -0.076  0.00  0.00    -0.360 N 
ATOM     19  C18 <0> d   1       9.434  -2.936  -0.099  0.00  0.00     0.033 A 
ATOM     20  C12 <0> d   1       5.949  -1.962  -0.058  0.00  0.00     0.103 A 
ATOM     21  C20 <0> d   1       6.609  -4.372  -0.080  0.00  0.00     0.156 C 
ATOM     22  C17 <0> d   1      10.542  -2.117  -0.105  0.00  0.00     0.039 A 
ATOM     23  C16 <0> d   1      10.399  -0.733  -0.097  0.00  0.00     0.069 A 
BRANCH  23  24
ATOM     24  O2  <0> d   1      11.502   0.062  -0.103  0.00  0.00    -0.356 OA
ATOM     25  C19 <0> d   1      12.773  -0.591  -0.117  0.00  0.00     0.210 C 
ENDBRANCH  23  24
ENDBRANCH   1  14
TORSDOF 3
