REMARK  4 active torsions:
REMARK  status: ('A' for Active; 'I' for Inactive)
REMARK    1  A    between atoms: C4_4  and  C7_7 
REMARK       I    between atoms: C7_7  and  N1_9 
REMARK    2  A    between atoms: N1_9  and  C8_10 
REMARK    3  A    between atoms: C8_10  and  C9_11 
REMARK    4  A    between atoms: C16_19  and  C18_22 
ROOT
ATOM      1  C9  <0> d   1       1.186   3.170   0.008  0.00  0.00     0.031 A 
ATOM      2  C10 <0> d   1       1.186   1.785   0.000  0.00  0.00     0.117 A 
ATOM      3  C11 <0> d   1      -0.013   1.076   0.008  0.00  0.00     0.041 A 
ATOM      4  C12 <0> d   1      -1.206   1.739   0.017  0.00  0.00     0.021 A 
ATOM      5  C13 <0> d   1      -1.223   3.135   0.030  0.00  0.00     0.050 A 
ATOM      6  C14 <0> d   1      -0.019   3.860   0.022  0.00  0.00     0.100 A 
ATOM      7  O2  <0> d   1      -0.037   5.208   0.030  0.00  0.00    -0.320 OA
ATOM      8  C15 <0> d   1      -1.163   5.926   0.045  0.00  0.00     0.159 A 
ATOM      9  C16 <0> d   1      -2.394   5.354   0.054  0.00  0.00     0.048 A 
ATOM     10  C17 <0> d   1      -2.492   3.884   0.046  0.00  0.00     0.197 A 
ATOM     11  O3  <0> d   1      -3.570   3.315   0.053  0.00  0.00    -0.286 OA
ATOM     12  O4  <0> d   1       2.365   1.113  -0.014  0.00  0.00    -0.191 OA
ENDROOT
BRANCH   1  13
ATOM     13  C8  <0> d   1       2.490   3.926   0.000  0.00  0.00     0.167 C 
BRANCH  13  14
ATOM     14  N1  <0> d   1       2.900   4.178  -1.383  0.00  0.00    -0.352 N 
ATOM     15  C7  <0> d   1       4.044   4.844  -1.636  0.00  0.00     0.251 C 
ATOM     16  O1  <0> d   1       4.736   5.236  -0.716  0.00  0.00    -0.268 OA
ATOM     17  H6  <0> d   1       2.274   3.824  -2.216  0.00  0.00     0.163 HD
BRANCH  15  18
ATOM     18  C4  <0> d   1       4.458   5.099  -3.032  0.00  0.00     0.032 A 
ATOM     19  C3  <0> d   1       5.643   5.788  -3.297  0.00  0.00     0.017 A 
ATOM     20  C2  <0> d   1       6.024   6.022  -4.603  0.00  0.00     0.001 A 
ATOM     21  C1  <0> d   1       5.234   5.575  -5.647  0.00  0.00     0.000 A 
ATOM     22  C6  <0> d   1       4.059   4.892  -5.391  0.00  0.00     0.001 A 
ATOM     23  C5  <0> d   1       3.670   4.646  -4.091  0.00  0.00     0.017 A 
ENDBRANCH  15  18
ENDBRANCH  13  14
ENDBRANCH   1  13
BRANCH   9  24
ATOM     24  C18 <0> d   1      -3.618   6.193   0.070  0.00  0.00    -0.020 A 
ATOM     25  C23 <0> d   1      -3.747   7.222   1.000  0.00  0.00     0.015 A 
ATOM     26  C22 <0> d   1      -4.886   8.000   1.012  0.00  0.00     0.043 A 
ATOM     27  C21 <0> d   1      -5.901   7.759   0.100  0.00  0.00     0.116 A 
ATOM     28  C20 <0> d   1      -5.777   6.737  -0.827  0.00  0.00     0.043 A 
ATOM     29  F1  <0> d   1      -7.015   8.523   0.115  0.00  0.00    -0.206 F 
ATOM     30  C19 <0> d   1      -4.639   5.957  -0.849  0.00  0.00     0.015 A 
ENDBRANCH   9  24
TORSDOF 4
