REMARK  2 active torsions:
REMARK  status: ('A' for Active; 'I' for Inactive)
REMARK    1  A    between atoms: C9_10  and  C10_11 
REMARK    2  A    between atoms: C15_17  and  O2_20 
ROOT
ATOM      1  C1  <0> d   1       5.566  -6.103  -0.085  0.00  0.00     0.054 C 
ATOM      2  C2  <0> d   1       6.769  -5.196  -0.090  0.00  0.00     0.009 A 
ATOM      3  C3  <0> d   1       8.045  -5.737  -0.104  0.00  0.00     0.116 A 
ATOM      4  C4  <0> d   1       9.165  -4.910  -0.109  0.00  0.00     0.041 A 
ATOM      5  C5  <0> d   1       9.016  -3.551  -0.101  0.00  0.00     0.021 A 
ATOM      6  C6  <0> d   1       7.738  -2.993  -0.087  0.00  0.00     0.051 A 
ATOM      7  C7  <0> d   1       6.602  -3.818  -0.081  0.00  0.00     0.099 A 
ATOM      8  O1  <0> d   1       5.499  -3.040  -0.067  0.00  0.00    -0.305 OA
ATOM      9  C8  <0> d   1       5.821  -1.725  -0.062  0.00  0.00     0.128 A 
ATOM     10  C9  <0> d   1       4.937  -0.688  -0.048  0.00  0.00     0.055 C 
ATOM     11  C20 <0> d   1       7.236  -1.607  -0.080  0.00  0.00     0.218 A 
ATOM     12  O3  <0> d   1       7.895  -0.580  -0.087  0.00  0.00    -0.284 OA
ATOM     13  O4  <0> d   1       8.205  -7.085  -0.113  0.00  0.00    -0.192 OA
ENDROOT
BRANCH  10  14
ATOM     14  C10 <0> d   1       3.500  -0.954  -0.036  0.00  0.00    -0.005 A 
ATOM     15  C13 <0> d   1       2.415   0.046  -0.020  0.00  0.00     0.005 A 
ATOM     16  C12 <0> d   1       1.216  -0.684  -0.013  0.00  0.00     0.045 A 
ATOM     17  C14 <0> d   1       2.387   1.438  -0.013  0.00  0.00     0.051 A 
ATOM     18  N1  <0> d   1       1.542  -2.026  -0.023  0.00  0.00    -0.360 N 
ATOM     19  C17 <0> d   1       0.002  -0.004   0.002  0.00  0.00     0.033 A 
ATOM     20  C11 <0> d   1       2.887  -2.189  -0.037  0.00  0.00     0.103 A 
ATOM     21  C19 <0> d   1       0.569  -3.122  -0.020  0.00  0.00     0.156 C 
ATOM     22  C16 <0> d   1      -0.017   1.373   0.010  0.00  0.00     0.039 A 
ATOM     23  C15 <0> d   1       1.171   2.097   0.002  0.00  0.00     0.069 A 
BRANCH  23  24
ATOM     24  O2  <0> d   1       1.137   3.457   0.009  0.00  0.00    -0.356 OA
ATOM     25  C18 <0> d   1      -0.152   4.073   0.025  0.00  0.00     0.210 C 
ENDBRANCH  23  24
ENDBRANCH  10  14
TORSDOF 2
