REMARK  6 active torsions:
REMARK  status: ('A' for Active; 'I' for Inactive)
REMARK    1  A    between atoms: C9_10  and  C10_11 
REMARK    2  A    between atoms: C15_16  and  O2_17 
REMARK    3  A    between atoms: N1_22  and  C20_25 
REMARK    4  A    between atoms: C20_25  and  C21_26 
REMARK    5  A    between atoms: C21_26  and  C22_27 
REMARK    6  A    between atoms: C22_27  and  N2_28 
ROOT
ATOM      1  C1  <0> d   1       0.983   1.398   0.041  0.00  0.00     0.054 C 
ATOM      2  C2  <0> d   1       0.925  -0.108   0.056  0.00  0.00     0.007 A 
ATOM      3  C3  <0> d   1       1.111  -0.819  -1.122  0.00  0.00     0.087 A 
ATOM      4  C4  <0> d   1       1.060  -2.209  -1.120  0.00  0.00     0.005 A 
ATOM      5  C5  <0> d   1       0.822  -2.885   0.046  0.00  0.00     0.030 A 
ATOM      6  C6  <0> d   1       0.633  -2.182   1.235  0.00  0.00     0.052 A 
ATOM      7  C7  <0> d   1       0.690  -0.779   1.248  0.00  0.00     0.099 A 
ATOM      8  O1  <0> d   1       0.486  -0.327   2.504  0.00  0.00    -0.305 OA
ATOM      9  C8  <0> d   1       0.292  -1.341   3.379  0.00  0.00     0.128 A 
ATOM     10  C9  <0> d   1       0.060  -1.218   4.712  0.00  0.00     0.055 C 
ATOM     11  C17 <0> d   1       0.364  -2.600   2.623  0.00  0.00     0.218 A 
ATOM     12  O3  <0> d   1       0.242  -3.735   3.050  0.00  0.00    -0.284 OA
ATOM     13  C18 <0> d   1       1.269  -2.990  -2.393  0.00  0.00     0.316 C 
ATOM     14  N1  <0> d   1       1.094  -2.101  -3.550  0.00  0.00     0.116 N 
ATOM     15  C19 <0> d   1       1.886  -0.873  -3.371  0.00  0.00     0.447 C 
ATOM     16  O4  <0> d   1       1.342  -0.135  -2.274  0.00  0.00    -0.320 OA
ENDROOT
BRANCH  14  17
ATOM     17  C20 <0> d   1       1.458  -2.784  -4.798  0.00  0.00     0.277 C 
BRANCH  17  18
ATOM     18  C21 <0> d   1       1.032  -1.927  -5.992  0.00  0.00     0.058 C 
BRANCH  18  19
ATOM     19  C22 <0> d   1       1.411  -2.639  -7.292  0.00  0.00     0.236 C 
BRANCH  19  20
ATOM     20  N2  <0> d   1       1.001  -1.816  -8.438  0.00  0.00    -0.067 N 
ATOM     21  C26 <0> d   1       1.471  -2.441  -9.682  0.00  0.00     0.261 C 
ATOM     22  C25 <0> d   1       1.043  -1.581 -10.875  0.00  0.00     0.195 C 
ATOM     23  O5  <0> d   1      -0.379  -1.434 -10.864  0.00  0.00    -0.388 OA
ATOM     24  C24 <0> d   1      -0.887  -0.851  -9.661  0.00  0.00     0.195 C 
ATOM     25  C23 <0> d   1      -0.464  -1.710  -8.467  0.00  0.00     0.261 C 
ATOM     26  H31 <0> d   1       1.404  -0.895  -8.351  0.00  0.00     0.280 HD
ENDBRANCH  19  20
ENDBRANCH  18  19
ENDBRANCH  17  18
ENDBRANCH  14  17
BRANCH  10  27
ATOM     27  C10 <0> d   1       0.161   0.096   5.355  0.00  0.00    -0.000 A 
ATOM     28  C15 <0> d   1       0.272   0.193   6.753  0.00  0.00     0.078 A 
ATOM     29  C14 <0> d   1       0.373   1.440   7.348  0.00  0.00     0.037 A 
ATOM     30  C13 <0> d   1       0.352   2.583   6.572  0.00  0.00     0.003 A 
ATOM     31  C12 <0> d   1       0.237   2.494   5.194  0.00  0.00     0.001 A 
ATOM     32  C11 <0> d   1       0.142   1.263   4.582  0.00  0.00     0.014 A 
BRANCH  28  33
ATOM     33  O2  <0> d   1       0.286  -0.930   7.515  0.00  0.00    -0.355 OA
ATOM     34  C16 <0> d   1       0.401  -0.753   8.928  0.00  0.00     0.210 C 
ENDBRANCH  28  33
ENDBRANCH  10  27
TORSDOF 6
