REMARK  4 active torsions:
REMARK  status: ('A' for Active; 'I' for Inactive)
REMARK    1  A    between atoms: C2_2  and  N1_3 
REMARK    2  A    between atoms: N2_6  and  C7_9 
REMARK    3  A    between atoms: C7_9  and  C8_10 
REMARK    4  A    between atoms: C15_18  and  C16_19 
ROOT
ATOM      1  C8  <0> d   1       3.366   3.504   1.491  0.00  0.00     0.041 A 
ATOM      2  C9  <0> d   1       3.304   4.388   0.425  0.00  0.00     0.118 A 
ATOM      3  C10 <0> d   1       3.243   5.761   0.647  0.00  0.00     0.041 A 
ATOM      4  C11 <0> d   1       3.254   6.251   1.922  0.00  0.00     0.021 A 
ATOM      5  C12 <0> d   1       3.321   5.373   3.004  0.00  0.00     0.051 A 
ATOM      6  C13 <0> d   1       3.378   3.986   2.793  0.00  0.00     0.101 A 
ATOM      7  O1  <0> d   1       3.438   3.346   3.982  0.00  0.00    -0.305 OA
ATOM      8  C14 <0> d   1       3.426   4.212   5.021  0.00  0.00     0.128 A 
ATOM      9  C15 <0> d   1       3.475   3.886   6.337  0.00  0.00     0.054 C 
ATOM     10  C21 <0> d   1       3.351   5.573   4.465  0.00  0.00     0.218 A 
ATOM     11  O2  <0> d   1       3.319   6.628   5.074  0.00  0.00    -0.284 OA
ATOM     12  O3  <0> d   1       3.298   3.911  -0.845  0.00  0.00    -0.191 OA
ENDROOT
BRANCH   1  13
ATOM     13  C7  <0> d   1       3.426   2.020   1.236  0.00  0.00     0.317 C 
BRANCH  13  14
ATOM     14  N2  <0> d   1       2.062   1.475   1.189  0.00  0.00     0.096 N 
ATOM     15  C4  <0> d   1       1.326   1.997   0.029  0.00  0.00     0.300 C 
ATOM     16  C3  <0> d   1      -0.110   1.470   0.060  0.00  0.00     0.265 C 
ATOM     17  N1  <0> d   1      -0.091   0.000   0.051  0.00  0.00    -0.068 N 
ATOM     18  C6  <0> d   1       0.645  -0.521   1.211  0.00  0.00     0.265 C 
ATOM     19  H23 <0> d   1       0.434  -0.327  -0.859  0.00  0.00     0.280 HD
ATOM     20  C5  <0> d   1       2.082   0.006   1.180  0.00  0.00     0.300 C 
BRANCH  17  21
ATOM     21  C2  <0> d   1      -1.454  -0.544   0.004  0.00  0.00     0.230 C 
ATOM     22  C1  <0> d   1      -1.393  -2.051  -0.254  0.00  0.00     0.034 C 
ENDBRANCH  17  21
ENDBRANCH  13  14
ENDBRANCH   1  13
BRANCH   9  23
ATOM     23  C16 <0> d   1       3.432   2.475   6.746  0.00  0.00    -0.016 A 
ATOM     24  C20 <0> d   1       3.357   2.128   8.100  0.00  0.00     0.127 A 
ATOM     25  N3  <0> d   1       3.320   0.864   8.465  0.00  0.00    -0.272 NA
ATOM     26  C19 <0> d   1       3.350  -0.117   7.583  0.00  0.00     0.116 A 
ATOM     27  C18 <0> d   1       3.423   0.141   6.226  0.00  0.00     0.020 A 
ATOM     28  C17 <0> d   1       3.461   1.452   5.786  0.00  0.00     0.014 A 
ENDBRANCH   9  23
TORSDOF 4
