REMARK  5 active torsions:
REMARK  status: ('A' for Active; 'I' for Inactive)
REMARK    1  A    between atoms: C2_2  and  C3_3 
REMARK    2  A    between atoms: C9_9  and  C12_14 
REMARK    3  A    between atoms: C12_14  and  N1_15 
REMARK    4  A    between atoms: N2_18  and  C17_21 
REMARK    5  A    between atoms: C17_21  and  C18_22 
ROOT
ATOM      1  N1  <0> d   1      -1.063   4.114  -1.298  0.00  0.00     0.096 N 
ATOM      2  C13 <0> d   1       0.298   3.732  -1.701  0.00  0.00     0.300 C 
ATOM      3  C14 <0> d   1       0.559   4.216  -3.129  0.00  0.00     0.265 C 
ATOM      4  N2  <0> d   1       0.385   5.674  -3.189  0.00  0.00    -0.064 N 
ATOM      5  C15 <0> d   1      -0.976   6.056  -2.786  0.00  0.00     0.265 C 
ATOM      6  C16 <0> d   1      -1.238   5.572  -1.358  0.00  0.00     0.300 C 
ATOM      7  H27 <0> d   1       1.090   6.130  -2.478  0.00  0.00     0.280 HD
ENDROOT
BRANCH   1   8
ATOM      8  C12 <0> d   1      -1.379   3.600   0.041  0.00  0.00     0.312 C 
BRANCH   8   9
ATOM      9  C9  <0> d   1      -1.569   2.107  -0.025  0.00  0.00    -0.011 A 
ATOM     10  C7  <0> d   1      -2.791   1.528  -0.593  0.00  0.00     0.007 A 
ATOM     11  C6  <0> d   1      -2.926   0.129  -0.635  0.00  0.00     0.090 A 
ATOM     12  C8  <0> d   1      -3.811   2.343  -1.093  0.00  0.00     0.022 A 
ATOM     13  C5  <0> d   1      -4.078  -0.428  -1.177  0.00  0.00     0.039 A 
ATOM     14  O2  <0> d   1      -1.940  -0.657  -0.153  0.00  0.00    -0.275 OA
ATOM     15  C4  <0> d   1      -5.072   0.394  -1.665  0.00  0.00     0.010 A 
ATOM     16  C3  <0> d   1      -4.935   1.774  -1.622  0.00  0.00    -0.058 A 
ATOM     17  C11 <0> d   1      -0.821  -0.134   0.373  0.00  0.00     0.288 A 
ATOM     18  C10 <0> d   1      -0.619   1.261   0.447  0.00  0.00     0.092 A 
ATOM     19  O1  <0> d   1       0.041  -0.882   0.796  0.00  0.00    -0.260 OA
BRANCH  16  20
ATOM     20  C2  <0> d   1      -6.035   2.652  -2.161  0.00  0.00     0.034 C 
ATOM     21  C1  <0> d   1      -7.029   2.970  -1.042  0.00  0.00     0.010 C 
ENDBRANCH  16  20
ENDBRANCH   8   9
ENDBRANCH   1   8
BRANCH   4  22
ATOM     22  C17 <0> d   1       0.701   6.188  -4.528  0.00  0.00     0.273 C 
BRANCH  22  23
ATOM     23  C18 <0> d   1       1.993   5.579  -5.008  0.00  0.00    -0.030 A 
ATOM     24  C23 <0> d   1       1.975   4.393  -5.718  0.00  0.00     0.048 A 
ATOM     25  C22 <0> d   1       3.162   3.831  -6.160  0.00  0.00     0.105 A 
ATOM     26  C21 <0> d   1       4.372   4.464  -5.887  0.00  0.00     0.105 A 
ATOM     27  O3  <0> d   1       3.416   2.692  -6.868  0.00  0.00    -0.323 OA
ATOM     28  C20 <0> d   1       4.382   5.652  -5.173  0.00  0.00     0.040 A 
ATOM     29  O4  <0> d   1       5.384   3.722  -6.423  0.00  0.00    -0.323 OA
ATOM     30  C19 <0> d   1       3.194   6.210  -4.740  0.00  0.00     0.012 A 
ATOM     31  C24 <0> d   1       4.754   2.845  -7.376  0.00  0.00     0.352 C 
ENDBRANCH  22  23
ENDBRANCH   4  22
TORSDOF 5
