REMARK  3 active torsions:
REMARK  status: ('A' for Active; 'I' for Inactive)
REMARK    1  A    between atoms: C4_4  and  C7_7 
REMARK    2  A    between atoms: C10_10  and  C13_13 
REMARK    3  A    between atoms: N1_25  and  C24_28 
ROOT
ATOM      1  C13 <0> d   1       7.396  -2.745  -0.086  0.00  0.00     0.053 C 
ATOM      2  C14 <0> d   1       7.421  -4.099   0.003  0.00  0.00     0.127 A 
ATOM      3  C15 <0> d   1       6.251  -4.991   0.013  0.00  0.00     0.218 A 
ATOM      4  O1  <0> d   1       5.074  -4.680  -0.057  0.00  0.00    -0.284 OA
ATOM      5  C16 <0> d   1       6.821  -6.346   0.124  0.00  0.00     0.051 A 
ATOM      6  C17 <0> d   1       6.252  -7.619   0.184  0.00  0.00     0.021 A 
ATOM      7  C18 <0> d   1       7.056  -8.718   0.288  0.00  0.00     0.038 A 
ATOM      8  C19 <0> d   1       8.442  -8.574   0.336  0.00  0.00     0.081 A 
ATOM      9  C20 <0> d   1       9.019  -7.316   0.277  0.00  0.00     0.036 A 
ATOM     10  C21 <0> d   1       8.214  -6.187   0.171  0.00  0.00     0.101 A 
ATOM     11  O2  <0> d   1       8.526  -4.875   0.094  0.00  0.00    -0.305 OA
ATOM     12  C22 <0> d   1      10.516  -7.152   0.323  0.00  0.00     0.282 C 
ATOM     13  N1  <0> d   1      11.133  -8.372   0.861  0.00  0.00    -0.042 N 
ATOM     14  C23 <0> d   1      10.607  -9.534   0.129  0.00  0.00     0.410 C 
ATOM     15  O3  <0> d   1       9.219  -9.684   0.441  0.00  0.00    -0.323 OA
ATOM     16  H28 <0> d   1      10.909  -8.460   1.841  0.00  0.00     0.283 HD
ENDROOT
BRANCH   1  17
ATOM     17  C10 <0> d   1       6.119  -2.026   0.004  0.00  0.00    -0.033 A 
ATOM     18  C9  <0> d   1       5.142  -2.444   0.918  0.00  0.00     0.012 A 
ATOM     19  C8  <0> d   1       3.955  -1.773   1.000  0.00  0.00     0.013 A 
ATOM     20  C7  <0> d   1       3.715  -0.672   0.176  0.00  0.00    -0.026 A 
ATOM     21  C12 <0> d   1       4.685  -0.258  -0.739  0.00  0.00     0.013 A 
ATOM     22  C11 <0> d   1       5.875  -0.921  -0.822  0.00  0.00     0.012 A 
BRANCH  20  23
ATOM     23  C4  <0> d   1       2.426   0.054   0.269  0.00  0.00    -0.026 A 
ATOM     24  C3  <0> d   1       1.455  -0.357   1.181  0.00  0.00     0.012 A 
ATOM     25  C2  <0> d   1       0.258   0.323   1.263  0.00  0.00     0.001 A 
ATOM     26  C1  <0> d   1       0.019   1.411   0.442  0.00  0.00     0.000 A 
ATOM     27  C6  <0> d   1       0.979   1.823  -0.466  0.00  0.00     0.001 A 
ATOM     28  C5  <0> d   1       2.180   1.151  -0.556  0.00  0.00     0.012 A 
ENDBRANCH  20  23
ENDBRANCH   1  17
BRANCH  13  29
ATOM     29  C24 <0> d   1      12.590  -8.302   0.691  0.00  0.00     0.191 C 
ATOM     30  C29 <0> d   1      13.133  -7.084   1.442  0.00  0.00     0.033 C 
ATOM     31  C28 <0> d   1      14.651  -7.012   1.265  0.00  0.00     0.002 C 
ATOM     32  C27 <0> d   1      15.291  -8.284   1.825  0.00  0.00     0.000 C 
ATOM     33  C26 <0> d   1      14.748  -9.501   1.075  0.00  0.00     0.002 C 
ATOM     34  C25 <0> d   1      13.230  -9.574   1.252  0.00  0.00     0.033 C 
ENDBRANCH  13  29
TORSDOF 3
