REMARK  5 active torsions:
REMARK  status: ('A' for Active; 'I' for Inactive)
REMARK    1  A    between atoms: C4_4  and  C7_7 
REMARK    2  A    between atoms: C7_7  and  C8_8 
REMARK    3  A    between atoms: C7_7  and  N1_14 
REMARK    4  A    between atoms: N2_17  and  C18_20 
REMARK    5  A    between atoms: C18_20  and  C19_21 
ROOT
ATOM      1  N1  <0> d   1      -1.276  -0.385   0.839  0.00  0.00     0.105 N 
ATOM      2  C14 <0> d   1      -1.119   0.173   2.189  0.00  0.00     0.304 C 
ATOM      3  C15 <0> d   1      -2.207  -0.396   3.103  0.00  0.00     0.303 C 
ATOM      4  N2  <0> d   1      -2.106  -1.861   3.127  0.00  0.00     0.096 N 
ATOM      5  C16 <0> d   1      -2.263  -2.420   1.777  0.00  0.00     0.303 C 
ATOM      6  C17 <0> d   1      -1.175  -1.851   0.863  0.00  0.00     0.304 C 
ENDROOT
BRANCH   4   7
ATOM      7  C18 <0> d   1      -3.087  -2.442   4.054  0.00  0.00     0.312 C 
BRANCH   7   8
ATOM      8  C19 <0> d   1      -2.962  -1.775   5.400  0.00  0.00    -0.011 A 
ATOM      9  C23 <0> d   1      -1.839  -2.082   6.290  0.00  0.00     0.007 A 
ATOM     10  C22 <0> d   1      -1.758  -1.434   7.535  0.00  0.00     0.090 A 
ATOM     11  C24 <0> d   1      -0.853  -2.998   5.923  0.00  0.00     0.022 A 
ATOM     12  O2  <0> d   1      -2.715  -0.552   7.897  0.00  0.00    -0.275 OA
ATOM     13  C27 <0> d   1      -0.694  -1.716   8.377  0.00  0.00     0.046 A 
ATOM     14  C21 <0> d   1      -3.748  -0.270   7.089  0.00  0.00     0.288 A 
ATOM     15  C20 <0> d   1      -3.889  -0.879   5.823  0.00  0.00     0.092 A 
ATOM     16  O1  <0> d   1      -4.587   0.533   7.457  0.00  0.00    -0.260 OA
ATOM     17  C26 <0> d   1       0.277  -2.633   8.005  0.00  0.00    -0.049 A 
ATOM     18  C25 <0> d   1       0.200  -3.270   6.780  0.00  0.00    -0.051 A 
ATOM     19  C28 <0> d   1       1.404  -2.882   8.975  0.00  0.00     0.039 C 
ATOM     20  C31 <0> d   1       1.227  -4.273   6.322  0.00  0.00     0.039 C 
ATOM     21  C30 <0> d   1       2.507  -4.144   7.144  0.00  0.00     0.005 C 
ATOM     22  C29 <0> d   1       2.132  -4.179   8.631  0.00  0.00     0.005 C 
ENDBRANCH   7   8
ENDBRANCH   4   7
BRANCH   1  23
ATOM     23  C7  <0> d   1      -0.295   0.195  -0.088  0.00  0.00     0.289 C 
BRANCH  23  24
ATOM     24  C4  <0> d   1      -0.429   1.696  -0.086  0.00  0.00    -0.021 A 
ATOM     25  C3  <0> d   1       0.701   2.491  -0.128  0.00  0.00     0.010 A 
ATOM     26  C2  <0> d   1       0.579   3.868  -0.126  0.00  0.00     0.001 A 
ATOM     27  C1  <0> d   1      -0.674   4.450  -0.083  0.00  0.00     0.000 A 
ATOM     28  C6  <0> d   1      -1.804   3.655  -0.041  0.00  0.00     0.001 A 
ATOM     29  C5  <0> d   1      -1.682   2.279  -0.048  0.00  0.00     0.010 A 
ENDBRANCH  23  24
BRANCH  23  30
ATOM     30  C8  <0> d   1      -0.546  -0.330  -1.478  0.00  0.00    -0.021 A 
ATOM     31  C13 <0> d   1       0.519  -0.662  -2.295  0.00  0.00     0.010 A 
ATOM     32  C12 <0> d   1       0.288  -1.143  -3.570  0.00  0.00     0.001 A 
ATOM     33  C11 <0> d   1      -1.007  -1.292  -4.029  0.00  0.00     0.000 A 
ATOM     34  C10 <0> d   1      -2.072  -0.961  -3.212  0.00  0.00     0.001 A 
ATOM     35  C9  <0> d   1      -1.842  -0.484  -1.935  0.00  0.00     0.010 A 
ENDBRANCH  23  30
ENDBRANCH   1  23
TORSDOF 5
