REMARK  6 active torsions:
REMARK  status: ('A' for Active; 'I' for Inactive)
REMARK    1  A    between atoms: C3_4  and  C10_11 
REMARK    2  A    between atoms: C16_18  and  O3_32 
REMARK    3  A    between atoms: C17_19  and  C19_22 
REMARK    4  A    between atoms: C19_22  and  N2_23 
REMARK    5  A    between atoms: N2_23  and  C21_25 
REMARK    6  A    between atoms: C21_25  and  C22_26 
ROOT
ATOM      1  C10 <0> d   1       1.624  -1.797  -0.024  0.00  0.00     0.055 C 
ATOM      2  C11 <0> d   1       1.269  -0.482  -0.013  0.00  0.00     0.128 A 
ATOM      3  C12 <0> d   1       2.166   0.620  -0.015  0.00  0.00     0.218 A 
ATOM      4  O1  <0> d   1       3.385   0.582  -0.027  0.00  0.00    -0.284 OA
ATOM      5  C13 <0> d   1       1.307   1.817  -0.001  0.00  0.00     0.051 A 
ATOM      6  C14 <0> d   1       1.569   3.187   0.005  0.00  0.00     0.021 A 
ATOM      7  C15 <0> d   1       0.533   4.077   0.020  0.00  0.00     0.038 A 
ATOM      8  C16 <0> d   1      -0.783   3.621   0.029  0.00  0.00     0.076 A 
ATOM      9  C17 <0> d   1      -1.058   2.264   0.029  0.00  0.00     0.035 A 
ATOM     10  C18 <0> d   1      -0.016   1.346   0.009  0.00  0.00     0.101 A 
ATOM     11  O2  <0> d   1       0.002  -0.004   0.002  0.00  0.00    -0.305 OA
ENDROOT
BRANCH   1  12
ATOM     12  C3  <0> d   1       0.592  -2.832  -0.019  0.00  0.00    -0.005 A 
ATOM     13  C2  <0> d   1      -0.773  -2.640  -0.005  0.00  0.00     0.103 A 
ATOM     14  N1  <0> d   1      -1.399  -3.842  -0.006  0.00  0.00    -0.360 N 
ATOM     15  C1  <0> d   1      -2.853  -4.026   0.007  0.00  0.00     0.156 C 
ATOM     16  C5  <0> d   1      -0.477  -4.869  -0.021  0.00  0.00     0.045 A 
ATOM     17  C4  <0> d   1       0.803  -4.293  -0.035  0.00  0.00     0.002 A 
ATOM     18  C6  <0> d   1      -0.601  -6.254  -0.027  0.00  0.00     0.030 A 
ATOM     19  C9  <0> d   1       1.934  -5.104  -0.046  0.00  0.00     0.014 A 
ATOM     20  C8  <0> d   1       1.791  -6.475  -0.052  0.00  0.00     0.001 A 
ATOM     21  C7  <0> d   1       0.527  -7.046  -0.042  0.00  0.00     0.002 A 
ENDBRANCH   1  12
BRANCH   9  22
ATOM     22  C19 <0> d   1      -2.486   1.783   0.048  0.00  0.00     0.279 C 
BRANCH  22  23
ATOM     23  N2  <0> d   1      -2.930   1.619   1.438  0.00  0.00    -0.067 N 
ATOM     24  C20 <0> d   1      -2.190   0.539   2.104  0.00  0.00     0.270 C 
ATOM     25  H24 <0> d   1      -2.716   2.556   1.974  0.00  0.00     0.280 HD
BRANCH  23  26
ATOM     26  C21 <0> d   1      -4.379   1.383   1.504  0.00  0.00     0.273 C 
BRANCH  26  27
ATOM     27  C22 <0> d   1      -4.836   1.465   2.938  0.00  0.00    -0.033 A 
ATOM     28  C27 <0> d   1      -5.244   2.676   3.465  0.00  0.00     0.009 A 
ATOM     29  C26 <0> d   1      -5.664   2.751   4.780  0.00  0.00     0.001 A 
ATOM     30  C25 <0> d   1      -5.677   1.615   5.567  0.00  0.00     0.000 A 
ATOM     31  C24 <0> d   1      -5.270   0.403   5.040  0.00  0.00     0.001 A 
ATOM     32  C23 <0> d   1      -4.854   0.328   3.724  0.00  0.00     0.009 A 
ENDBRANCH  26  27
ENDBRANCH  23  26
ENDBRANCH  22  23
ENDBRANCH   9  22
BRANCH   8  33
ATOM     33  O3  <0> d   1      -1.805   4.515   0.043  0.00  0.00    -0.360 OA
ATOM     34  H25 <0> d   1      -2.846   4.160   0.051  0.00  0.00     0.217 HD
ENDBRANCH   8  33
TORSDOF 6
