REMARK  5 active torsions:
REMARK  status: ('A' for Active; 'I' for Inactive)
REMARK    1  A    between atoms: C2_2  and  N1_3 
REMARK    2  A    between atoms: C4_5  and  C11_12 
REMARK    3  A    between atoms: C17_19  and  O3_32 
REMARK    4  A    between atoms: C18_20  and  C20_23 
REMARK    5  A    between atoms: C20_23  and  N2_24 
ROOT
ATOM      1  C11 <0> d   1       0.527  -1.272   5.178  0.00  0.00     0.055 C 
ATOM      2  C12 <0> d   1      -0.404  -2.264   5.097  0.00  0.00     0.128 A 
ATOM      3  C13 <0> d   1      -0.514  -3.373   5.978  0.00  0.00     0.218 A 
ATOM      4  O1  <0> d   1       0.191  -3.627   6.941  0.00  0.00    -0.284 OA
ATOM      5  C14 <0> d   1      -1.663  -4.149   5.480  0.00  0.00     0.051 A 
ATOM      6  C15 <0> d   1      -2.280  -5.328   5.899  0.00  0.00     0.021 A 
ATOM      7  C16 <0> d   1      -3.353  -5.816   5.209  0.00  0.00     0.038 A 
ATOM      8  C17 <0> d   1      -3.833  -5.141   4.089  0.00  0.00     0.076 A 
ATOM      9  C18 <0> d   1      -3.230  -3.969   3.661  0.00  0.00     0.036 A 
ATOM     10  C19 <0> d   1      -2.138  -3.461   4.352  0.00  0.00     0.101 A 
ATOM     11  O2  <0> d   1      -1.376  -2.363   4.159  0.00  0.00    -0.305 OA
ENDROOT
BRANCH   1  12
ATOM     12  C4  <0> d   1       0.528  -0.190   4.197  0.00  0.00    -0.005 A 
ATOM     13  C3  <0> d   1      -0.344  -0.029   3.141  0.00  0.00     0.103 A 
ATOM     14  N1  <0> d   1      -0.020   1.094   2.454  0.00  0.00    -0.356 N 
ATOM     15  C6  <0> d   1       1.066   1.720   3.032  0.00  0.00     0.045 A 
ATOM     16  C5  <0> d   1       1.459   0.954   4.141  0.00  0.00     0.002 A 
ATOM     17  C7  <0> d   1       1.768   2.879   2.721  0.00  0.00     0.030 A 
ATOM     18  C10 <0> d   1       2.541   1.356   4.919  0.00  0.00     0.014 A 
ATOM     19  C9  <0> d   1       3.225   2.508   4.595  0.00  0.00     0.001 A 
ATOM     20  C8  <0> d   1       2.838   3.265   3.499  0.00  0.00     0.002 A 
BRANCH  14  21
ATOM     21  C2  <0> d   1      -0.729   1.579   1.267  0.00  0.00     0.124 C 
ATOM     22  C1  <0> d   1      -0.013   1.086   0.008  0.00  0.00     0.027 C 
ENDBRANCH  14  21
ENDBRANCH   1  12
BRANCH   9  23
ATOM     23  C20 <0> d   1      -3.758  -3.248   2.448  0.00  0.00     0.279 C 
BRANCH  23  24
ATOM     24  N2  <0> d   1      -3.077  -3.747   1.246  0.00  0.00    -0.066 N 
ATOM     25  C25 <0> d   1      -3.724  -3.245   0.028  0.00  0.00     0.239 C 
ATOM     26  C24 <0> d   1      -3.082  -3.898  -1.199  0.00  0.00     0.008 C 
ATOM     27  C23 <0> d   1      -1.587  -3.571  -1.221  0.00  0.00     0.011 C 
ATOM     28  C26 <0> d   1      -3.743  -3.359  -2.469  0.00  0.00     0.011 C 
ATOM     29  C22 <0> d   1      -0.946  -4.061   0.080  0.00  0.00     0.008 C 
ATOM     30  C21 <0> d   1      -1.649  -3.403   1.269  0.00  0.00     0.239 C 
ATOM     31  C27 <0> d   1      -1.087  -5.581   0.178  0.00  0.00     0.011 C 
ATOM     32  H30 <0> d   1      -3.157  -4.844   1.241  0.00  0.00     0.280 HD
ENDBRANCH  23  24
ENDBRANCH   9  23
BRANCH   8  33
ATOM     33  O3  <0> d   1      -4.900  -5.635   3.411  0.00  0.00    -0.360 OA
ATOM     34  H31 <0> d   1      -5.282  -5.106   2.526  0.00  0.00     0.217 HD
ENDBRANCH   8  33
TORSDOF 5
