REMARK  4 active torsions:
REMARK  status: ('A' for Active; 'I' for Inactive)
REMARK    1  A    between atoms: C9_10  and  C10_11 
REMARK    2  A    between atoms: C14_15  and  O2_17 
REMARK    3  A    between atoms: N1_22  and  C20_25 
REMARK    4  A    between atoms: C20_25  and  C21_26 
ROOT
ATOM      1  C1  <0> d   1       2.825  -0.974  -6.093  0.00  0.00     0.054 C 
ATOM      2  C2  <0> d   1       3.929  -0.741  -5.093  0.00  0.00     0.007 A 
ATOM      3  C3  <0> d   1       3.616  -0.391  -3.787  0.00  0.00     0.087 A 
ATOM      4  C4  <0> d   1       4.626  -0.175  -2.855  0.00  0.00     0.005 A 
ATOM      5  C5  <0> d   1       5.938  -0.304  -3.224  0.00  0.00     0.030 A 
ATOM      6  C6  <0> d   1       6.265  -0.655  -4.533  0.00  0.00     0.052 A 
ATOM      7  C7  <0> d   1       5.254  -0.877  -5.482  0.00  0.00     0.099 A 
ATOM      8  O1  <0> d   1       5.808  -1.202  -6.671  0.00  0.00    -0.305 OA
ATOM      9  C8  <0> d   1       7.160  -1.220  -6.608  0.00  0.00     0.127 A 
ATOM     10  C9  <0> d   1       8.006  -1.508  -7.628  0.00  0.00     0.053 C 
ATOM     11  C17 <0> d   1       7.545  -0.870  -5.231  0.00  0.00     0.218 A 
ATOM     12  O3  <0> d   1       8.670  -0.778  -4.771  0.00  0.00    -0.284 OA
ATOM     13  C18 <0> d   1       4.296   0.203  -1.433  0.00  0.00     0.317 C 
ATOM     14  N1  <0> d   1       2.909   0.683  -1.361  0.00  0.00     0.120 N 
ATOM     15  C19 <0> d   1       2.008  -0.264  -2.037  0.00  0.00     0.448 C 
ATOM     16  O4  <0> d   1       2.310  -0.262  -3.434  0.00  0.00    -0.320 OA
ENDROOT
BRANCH  10  17
ATOM     17  C10 <0> d   1       7.471  -1.954  -8.923  0.00  0.00    -0.031 A 
ATOM     18  C15 <0> d   1       6.091  -1.967  -9.146  0.00  0.00     0.048 A 
ATOM     19  C14 <0> d   1       5.596  -2.383 -10.369  0.00  0.00     0.069 A 
ATOM     20  C13 <0> d   1       6.469  -2.797 -11.368  0.00  0.00     0.037 A 
ATOM     21  C12 <0> d   1       7.835  -2.790 -11.148  0.00  0.00     0.004 A 
ATOM     22  C11 <0> d   1       8.341  -2.373  -9.936  0.00  0.00     0.011 A 
BRANCH  19  23
ATOM     23  O2  <0> d   1       4.256  -2.393 -10.592  0.00  0.00    -0.356 OA
ATOM     24  C16 <0> d   1       3.815  -2.841 -11.876  0.00  0.00     0.210 C 
ENDBRANCH  19  23
ENDBRANCH  10  17
BRANCH  14  25
ATOM     25  C20 <0> d   1       2.498   0.896   0.034  0.00  0.00     0.315 C 
BRANCH  25  26
ATOM     26  C21 <0> d   1       1.174   1.614   0.063  0.00  0.00    -0.013 A 
ATOM     27  C25 <0> d   1      -0.009   0.899   0.069  0.00  0.00     0.125 A 
ATOM     28  N2  <0> d   1      -1.173   1.520   0.089  0.00  0.00    -0.273 NA
ATOM     29  C24 <0> d   1      -1.255   2.836   0.116  0.00  0.00     0.116 A 
ATOM     30  C23 <0> d   1      -0.115   3.617   0.111  0.00  0.00     0.020 A 
ATOM     31  C22 <0> d   1       1.126   2.999   0.084  0.00  0.00     0.012 A 
ENDBRANCH  25  26
ENDBRANCH  14  25
TORSDOF 4
