REMARK  7 active torsions:
REMARK  status: ('A' for Active; 'I' for Inactive)
REMARK    1  A    between atoms: C3_3  and  C18_23 
REMARK    2  A    between atoms: C8_9  and  O3_13 
REMARK    3  A    between atoms: O3_13  and  C11_14 
REMARK    4  A    between atoms: C11_14  and  C12_15 
REMARK    5  A    between atoms: C12_15  and  N1_16 
REMARK    6  A    between atoms: C21_26  and  O5_31 
REMARK    7  A    between atoms: C22_27  and  O4_29 
ROOT
ATOM      1  C1  <0> d   1       3.770   6.097  -0.597  0.00  0.00     0.077 C 
ATOM      2  C2  <0> d   1       2.423   5.436  -0.453  0.00  0.00     0.065 A 
ATOM      3  C3  <0> d   1       1.319   6.221  -0.352  0.00  0.00     0.055 A 
ATOM      4  C4  <0> d   1       0.003   5.575  -0.211  0.00  0.00     0.198 A 
ATOM      5  O1  <0> d   1      -1.022   6.228  -0.116  0.00  0.00    -0.286 OA
ATOM      6  C5  <0> d   1      -0.015   4.102  -0.189  0.00  0.00     0.049 A 
ATOM      7  C6  <0> d   1      -1.211   3.394  -0.058  0.00  0.00     0.021 A 
ATOM      8  C7  <0> d   1      -1.192   2.029  -0.047  0.00  0.00     0.038 A 
ATOM      9  C8  <0> d   1       0.015   1.341  -0.154  0.00  0.00     0.071 A 
ATOM     10  C9  <0> d   1       1.209   2.029  -0.283  0.00  0.00     0.075 A 
ATOM     11  C10 <0> d   1       1.208   3.417  -0.302  0.00  0.00     0.092 A 
ATOM     12  O2  <0> d   1       2.361   4.103  -0.428  0.00  0.00    -0.313 OA
ENDROOT
BRANCH   3  13
ATOM     13  C18 <0> d   1       1.437   7.699  -0.385  0.00  0.00    -0.017 A 
ATOM     14  C23 <0> d   1       1.095   8.451   0.738  0.00  0.00     0.052 A 
ATOM     15  C22 <0> d   1       1.206   9.830   0.704  0.00  0.00     0.102 A 
ATOM     16  C21 <0> d   1       1.658  10.463  -0.452  0.00  0.00     0.101 A 
ATOM     17  C20 <0> d   1       1.998   9.714  -1.568  0.00  0.00     0.040 A 
ATOM     18  C19 <0> d   1       1.893   8.338  -1.536  0.00  0.00     0.015 A 
BRANCH  15  19
ATOM     19  O4  <0> d   1       0.874  10.567   1.797  0.00  0.00    -0.353 OA
ATOM     20  C24 <0> d   1       0.418   9.851   2.947  0.00  0.00     0.210 C 
ENDBRANCH  15  19
BRANCH  16  21
ATOM     21  O5  <0> d   1       1.767  11.818  -0.485  0.00  0.00    -0.353 OA
ATOM     22  C25 <0> d   1       2.237  12.402  -1.702  0.00  0.00     0.210 C 
ENDBRANCH  16  21
ENDBRANCH   3  13
BRANCH   9  23
ATOM     23  O3  <0> d   1       0.019  -0.017  -0.136  0.00  0.00    -0.349 OA
BRANCH  23  24
ATOM     24  C11 <0> d   1      -1.246  -0.668   0.001  0.00  0.00     0.206 C 
BRANCH  24  25
ATOM     25  C12 <0> d   1      -1.041  -2.184   0.000  0.00  0.00     0.299 C 
BRANCH  25  26
ATOM     26  N1  <0> d   1      -0.274  -2.575   1.190  0.00  0.00     0.093 N 
ATOM     27  C16 <0> d   1      -1.117  -2.545   2.394  0.00  0.00     0.302 C 
ATOM     28  C15 <0> d   1      -0.264  -2.880   3.619  0.00  0.00     0.302 C 
ATOM     29  N2  <0> d   1       0.347  -4.205   3.441  0.00  0.00     0.087 N 
ATOM     30  C14 <0> d   1       1.190  -4.234   2.237  0.00  0.00     0.302 C 
ATOM     31  C17 <0> d   1       1.115  -4.596   4.630  0.00  0.00     0.310 C 
ATOM     32  C13 <0> d   1       0.337  -3.899   1.011  0.00  0.00     0.302 C 
ENDBRANCH  25  26
ENDBRANCH  24  25
ENDBRANCH  23  24
ENDBRANCH   9  23
TORSDOF 7
