REMARK  5 active torsions:
REMARK  status: ('A' for Active; 'I' for Inactive)
REMARK    1  A    between atoms: C2_2  and  C3_3 
REMARK    2  A    between atoms: C5_5  and  C9_11 
REMARK    3  A    between atoms: C6_6  and  O2_10 
REMARK    4  A    between atoms: C8_8  and  O1_9 
REMARK    5  A    between atoms: C10_12  and  C13_18 
ROOT
ATOM      1  C9  <0> d   1       4.158  -1.638  -2.285  0.00  0.00     0.106 A 
ATOM      2  C10 <0> d   1       4.845  -2.427  -3.311  0.00  0.00     0.065 A 
ATOM      3  C11 <0> d   1       6.026  -2.841  -2.760  0.00  0.00     0.040 A 
ATOM      4  N1  <0> d   1       6.090  -2.364  -1.504  0.00  0.00    -0.281 N 
ATOM      5  H1  <0> d   1       6.824  -2.510  -0.887  0.00  0.00     0.189 HD
ATOM      6  N2  <0> d   1       4.939  -1.621  -1.227  0.00  0.00    -0.173 NA
ATOM      7  C12 <0> d   1       7.072  -3.684  -3.441  0.00  0.00     0.071 C 
ENDROOT
BRANCH   1   8
ATOM      8  C5  <0> d   1       2.838  -0.978  -2.418  0.00  0.00     0.029 A 
ATOM      9  C4  <0> d   1       2.543  -0.226  -3.553  0.00  0.00     0.026 A 
ATOM     10  C3  <0> d   1       1.313   0.387  -3.674  0.00  0.00    -0.024 A 
ATOM     11  C8  <0> d   1       0.368   0.261  -2.664  0.00  0.00     0.074 A 
ATOM     12  C7  <0> d   1       0.651  -0.491  -1.533  0.00  0.00     0.074 A 
ATOM     13  C6  <0> d   1       1.883  -1.109  -1.403  0.00  0.00     0.081 A 
BRANCH  10  14
ATOM     14  C2  <0> d   1       0.997   1.200  -4.902  0.00  0.00     0.037 C 
ATOM     15  C1  <0> d   1       0.141   0.368  -5.859  0.00  0.00     0.010 C 
ENDBRANCH  10  14
BRANCH  11  16
ATOM     16  O1  <0> d   1      -0.839   0.872  -2.787  0.00  0.00    -0.360 OA
ATOM     17  H9  <0> d   1      -1.513   0.328  -3.216  0.00  0.00     0.217 HD
ENDBRANCH  11  16
BRANCH  13  18
ATOM     18  O2  <0> d   1       2.163  -1.842  -0.294  0.00  0.00    -0.360 OA
ATOM     19  H10 <0> d   1       2.494  -1.319   0.449  0.00  0.00     0.217 HD
ENDBRANCH  13  18
ENDBRANCH   1   8
BRANCH   2  20
ATOM     20  C13 <0> d   1       4.357  -2.719  -4.673  0.00  0.00     0.145 A 
ATOM     21  N4  <0> d   1       5.071  -2.522  -5.825  0.00  0.00    -0.333 N 
ATOM     22  C19 <0> d   1       4.266  -2.918  -6.877  0.00  0.00     0.064 A 
ATOM     23  C20 <0> d   1       6.433  -1.993  -5.923  0.00  0.00     0.158 C 
ATOM     24  C14 <0> d   1       3.055  -3.346  -6.306  0.00  0.00     0.086 A 
ATOM     25  C18 <0> d   1       4.432  -2.958  -8.254  0.00  0.00     0.032 A 
ATOM     26  N3  <0> d   1       3.172  -3.201  -4.963  0.00  0.00    -0.228 NA
ATOM     27  C15 <0> d   1       2.029  -3.807  -7.137  0.00  0.00     0.034 A 
ATOM     28  C16 <0> d   1       2.210  -3.837  -8.491  0.00  0.00     0.002 A 
ATOM     29  C17 <0> d   1       3.406  -3.415  -9.054  0.00  0.00     0.002 A 
ENDBRANCH   2  20
TORSDOF 5
