REMARK  6 active torsions:
REMARK  status: ('A' for Active; 'I' for Inactive)
REMARK    1  A    between atoms: O1_2  and  C2_3 
REMARK    2  A    between atoms: C5_6  and  N1_9 
REMARK    3  A    between atoms: N2_12  and  C12_15 
REMARK    4  A    between atoms: C12_15  and  C13_16 
REMARK    5  A    between atoms: C14_17  and  O4_36 
REMARK    6  A    between atoms: C20_25  and  C22_27 
ROOT
ATOM      1  C13 <0> d   1       2.825  -5.683  -8.185  0.00  0.00     0.035 A 
ATOM      2  C14 <0> d   1       4.071  -5.976  -8.717  0.00  0.00     0.076 A 
ATOM      3  C15 <0> d   1       4.506  -7.296  -8.813  0.00  0.00     0.038 A 
ATOM      4  C16 <0> d   1       3.707  -8.320  -8.396  0.00  0.00     0.017 A 
ATOM      5  C17 <0> d   1       2.433  -8.046  -7.878  0.00  0.00    -0.000 A 
ATOM      6  C18 <0> d   1       2.005  -6.710  -7.745  0.00  0.00     0.100 A 
ATOM      7  O2  <0> d   1       0.807  -6.434  -7.176  0.00  0.00    -0.273 OA
ATOM      8  C19 <0> d   1      -0.149  -7.387  -7.269  0.00  0.00     0.301 C 
ATOM      9  O3  <0> d   1      -1.315  -7.093  -7.457  0.00  0.00    -0.259 OA
ATOM     10  C20 <0> d   1       0.271  -8.793  -7.135  0.00  0.00     0.076 C 
ATOM     11  C21 <0> d   1       1.578  -9.102  -7.474  0.00  0.00     0.034 C 
ENDROOT
BRANCH   1  12
ATOM     12  C12 <0> d   1       2.365  -4.252  -8.080  0.00  0.00     0.279 C 
BRANCH  12  13
ATOM     13  N2  <0> d   1       2.781  -3.698  -6.784  0.00  0.00    -0.064 N 
ATOM     14  C9  <0> d   1       2.438  -2.271  -6.731  0.00  0.00     0.255 C 
ATOM     15  C8  <0> d   1       2.974  -1.666  -5.429  0.00  0.00     0.150 C 
ATOM     16  N1  <0> d   1       2.458  -2.457  -4.301  0.00  0.00    -0.378 N 
ATOM     17  C11 <0> d   1       2.619  -3.919  -4.348  0.00  0.00     0.150 C 
ATOM     18  C10 <0> d   1       2.095  -4.418  -5.703  0.00  0.00     0.255 C 
ATOM     19  H26 <0> d   1       3.779  -3.807  -6.679  0.00  0.00     0.280 HD
BRANCH  16  20
ATOM     20  C5  <0> d   1       1.836  -1.836  -3.212  0.00  0.00     0.030 A 
ATOM     21  C4  <0> d   1       1.257  -2.605  -2.211  0.00  0.00     0.032 A 
ATOM     22  C3  <0> d   1       0.644  -1.992  -1.136  0.00  0.00     0.039 A 
ATOM     23  C2  <0> d   1       0.608  -0.608  -1.056  0.00  0.00     0.068 A 
ATOM     24  C7  <0> d   1       1.181   0.162  -2.057  0.00  0.00     0.039 A 
ATOM     25  C6  <0> d   1       1.799  -0.451  -3.130  0.00  0.00     0.032 A 
BRANCH  23  26
ATOM     26  O1  <0> d   1       0.004  -0.004   0.003  0.00  0.00    -0.356 OA
ATOM     27  C1  <0> d   1      -0.565  -0.857   0.998  0.00  0.00     0.210 C 
ENDBRANCH  23  26
ENDBRANCH  16  20
ENDBRANCH  12  13
ENDBRANCH   1  12
BRANCH   2  28
ATOM     28  O4  <0> d   1       4.872  -4.969  -9.148  0.00  0.00    -0.360 OA
ATOM     29  H25 <0> d   1       5.463  -4.617  -8.467  0.00  0.00     0.217 HD
ENDBRANCH   2  28
BRANCH  10  30
ATOM     30  C22 <0> d   1      -0.668  -9.832  -6.671  0.00  0.00     0.115 A 
ATOM     31  S1  <0> d   1      -2.383  -9.663  -6.199  0.00  0.00    -0.067 SA
ATOM     32  C28 <0> d   1      -2.675 -11.370  -5.804  0.00  0.00     0.035 A 
ATOM     33  C23 <0> d   1      -1.413 -11.959  -6.059  0.00  0.00     0.075 A 
ATOM     34  C27 <0> d   1      -3.752 -12.096  -5.359  0.00  0.00     0.021 A 
ATOM     35  N3  <0> d   1      -0.453 -11.119  -6.492  0.00  0.00    -0.239 NA
ATOM     36  C24 <0> d   1      -1.316 -13.352  -5.827  0.00  0.00     0.033 A 
ATOM     37  C25 <0> d   1      -2.389 -14.061  -5.386  0.00  0.00     0.002 A 
ATOM     38  C26 <0> d   1      -3.615 -13.455  -5.146  0.00  0.00     0.002 A 
ENDBRANCH  10  30
TORSDOF 6
