REMARK  6 active torsions:
REMARK  status: ('A' for Active; 'I' for Inactive)
REMARK    1  A    between atoms: C7_7  and  O1_8 
REMARK    2  A    between atoms: C8_9  and  C11_14 
REMARK    3  A    between atoms: C11_14  and  N1_15 
REMARK    4  A    between atoms: N2_18  and  C16_21 
REMARK    5  A    between atoms: C16_21  and  C17_22 
REMARK    6  A    between atoms: C18_23  and  C19_24 
ROOT
ATOM      1  N1  <0> d   1       1.463  -5.181   1.718  0.00  0.00    -0.064 N 
ATOM      2  C12 <0> d   1       2.233  -5.973   0.750  0.00  0.00     0.265 C 
ATOM      3  C13 <0> d   1       3.679  -6.102   1.232  0.00  0.00     0.300 C 
ATOM      4  N2  <0> d   1       3.698  -6.753   2.549  0.00  0.00     0.095 N 
ATOM      5  C14 <0> d   1       2.910  -5.984   3.523  0.00  0.00     0.300 C 
ATOM      6  C15 <0> d   1       1.470  -5.856   3.022  0.00  0.00     0.265 C 
ATOM      7  H27 <0> d   1       1.880  -4.266   1.811  0.00  0.00     0.280 HD
ENDROOT
BRANCH   1   8
ATOM      8  C11 <0> d   1       0.079  -5.042   1.246  0.00  0.00     0.274 C 
BRANCH   8   9
ATOM      9  C8  <0> d   1       0.061  -4.242  -0.030  0.00  0.00    -0.014 A 
ATOM     10  C5  <0> d   1       0.041  -2.776  -0.000  0.00  0.00     0.009 A 
ATOM     11  C4  <0> d   1       0.025  -2.069  -1.216  0.00  0.00     0.091 A 
ATOM     12  C6  <0> d   1       0.036  -2.081   1.213  0.00  0.00     0.052 A 
ATOM     13  C3  <0> d   1       0.006  -0.680  -1.199  0.00  0.00     0.047 A 
ATOM     14  O3  <0> d   1       0.028  -2.744  -2.386  0.00  0.00    -0.275 OA
ATOM     15  C2  <0> d   1       0.002  -0.004   0.002  0.00  0.00    -0.026 A 
ATOM     16  C1  <0> d   1      -0.018   1.503   0.010  0.00  0.00     0.051 C 
ATOM     17  C7  <0> d   1       0.023  -0.700   1.207  0.00  0.00     0.072 A 
ATOM     18  C10 <0> d   1       0.047  -4.085  -2.421  0.00  0.00     0.288 A 
ATOM     19  C9  <0> d   1       0.063  -4.858  -1.240  0.00  0.00     0.092 A 
ATOM     20  O2  <0> d   1       0.049  -4.650  -3.499  0.00  0.00    -0.260 OA
BRANCH  17  21
ATOM     21  O1  <0> d   1       0.025  -0.018   2.383  0.00  0.00    -0.360 OA
ATOM     22  H6  <0> d   1      -0.858   0.168   2.732  0.00  0.00     0.217 HD
ENDBRANCH  17  21
ENDBRANCH   8   9
ENDBRANCH   1   8
BRANCH   4  23
ATOM     23  C16 <0> d   1       5.076  -6.946   3.021  0.00  0.00     0.300 C 
BRANCH  23  24
ATOM     24  C17 <0> d   1       5.068  -7.827   4.244  0.00  0.00     0.004 C 
ATOM     25  C18 <0> d   1       5.802  -8.931   4.270  0.00  0.00     0.009 C 
BRANCH  25  26
ATOM     26  C19 <0> d   1       5.795  -9.795   5.470  0.00  0.00    -0.036 A 
ATOM     27  C24 <0> d   1       6.566 -10.957   5.501  0.00  0.00     0.011 A 
ATOM     28  C23 <0> d   1       6.561 -11.756   6.626  0.00  0.00     0.001 A 
ATOM     29  C22 <0> d   1       5.782 -11.413   7.717  0.00  0.00     0.000 A 
ATOM     30  C21 <0> d   1       5.011 -10.265   7.691  0.00  0.00     0.001 A 
ATOM     31  C20 <0> d   1       5.013  -9.454   6.574  0.00  0.00     0.011 A 
ENDBRANCH  25  26
ENDBRANCH  23  24
ENDBRANCH   4  23
TORSDOF 6
