REMARK  6 active torsions:
REMARK  status: ('A' for Active; 'I' for Inactive)
REMARK    1  A    between atoms: N2_5  and  C6_8 
REMARK    2  A    between atoms: C6_8  and  C7_9 
REMARK    3  A    between atoms: C8_10  and  O5_30 
REMARK    4  A    between atoms: C14_18  and  C16_20 
REMARK    5  A    between atoms: C19_23  and  O4_28 
REMARK    6  A    between atoms: C21_25  and  O3_26 
ROOT
ATOM      1  C7  <0> d   1       2.414  -0.002  -0.021  0.00  0.00     0.035 A 
ATOM      2  C8  <0> d   1       1.213  -0.693  -0.013  0.00  0.00     0.076 A 
ATOM      3  C9  <0> d   1       0.002  -0.004   0.002  0.00  0.00     0.038 A 
ATOM      4  C10 <0> d   1      -0.016   1.360   0.009  0.00  0.00     0.017 A 
ATOM      5  C11 <0> d   1       1.189   2.077   0.002  0.00  0.00    -0.000 A 
ATOM      6  C12 <0> d   1       2.414   1.385  -0.013  0.00  0.00     0.100 A 
ATOM      7  O1  <0> d   1       3.586   2.059  -0.021  0.00  0.00    -0.273 OA
ATOM      8  C13 <0> d   1       3.616   3.402  -0.015  0.00  0.00     0.299 A 
ATOM      9  O2  <0> d   1       4.685   3.985  -0.022  0.00  0.00    -0.259 OA
ATOM     10  C14 <0> d   1       2.367   4.168   0.001  0.00  0.00     0.053 A 
ATOM     11  C15 <0> d   1       1.175   3.495   0.009  0.00  0.00     0.032 A 
ENDROOT
BRANCH  10  12
ATOM     12  C16 <0> d   1       2.394   5.649   0.009  0.00  0.00     0.014 A 
ATOM     13  C21 <0> d   1       2.908   6.348  -1.090  0.00  0.00     0.082 A 
ATOM     14  C20 <0> d   1       2.929   7.732  -1.077  0.00  0.00     0.074 A 
ATOM     15  C19 <0> d   1       2.443   8.423   0.023  0.00  0.00     0.070 A 
ATOM     16  C18 <0> d   1       1.933   7.731   1.114  0.00  0.00     0.038 A 
ATOM     17  C17 <0> d   1       1.903   6.352   1.108  0.00  0.00     0.018 A 
BRANCH  13  18
ATOM     18  O3  <0> d   1       3.384   5.669  -2.167  0.00  0.00    -0.355 OA
ATOM     19  C22 <0> d   1       3.893   6.448  -3.251  0.00  0.00     0.210 C 
ENDBRANCH  13  18
BRANCH  15  20
ATOM     20  O4  <0> d   1       2.465   9.781   0.033  0.00  0.00    -0.356 OA
ATOM     21  C23 <0> d   1       1.949  10.430   1.197  0.00  0.00     0.210 C 
ENDBRANCH  15  20
ENDBRANCH  10  12
BRANCH   1  22
ATOM     22  C6  <0> d   1       3.718  -0.757  -0.037  0.00  0.00     0.279 C 
BRANCH  22  23
ATOM     23  N2  <0> d   1       4.129  -0.995  -1.427  0.00  0.00    -0.064 N 
ATOM     24  C3  <0> d   1       5.502  -1.514  -1.489  0.00  0.00     0.265 C 
ATOM     25  C2  <0> d   1       5.919  -1.672  -2.953  0.00  0.00     0.299 C 
ATOM     26  N1  <0> d   1       4.984  -2.581  -3.631  0.00  0.00     0.087 N 
ATOM     27  C1  <0> d   1       5.395  -2.819  -5.021  0.00  0.00     0.310 C 
ATOM     28  C5  <0> d   1       3.611  -2.062  -3.569  0.00  0.00     0.299 C 
ATOM     29  C4  <0> d   1       3.194  -1.903  -2.105  0.00  0.00     0.265 C 
ATOM     30  H27 <0> d   1       4.107  -0.029  -1.954  0.00  0.00     0.280 HD
ENDBRANCH  22  23
ENDBRANCH   1  22
BRANCH   2  31
ATOM     31  O5  <0> d   1       1.216  -2.050  -0.021  0.00  0.00    -0.360 OA
ATOM     32  H26 <0> d   1       0.265  -2.603  -0.015  0.00  0.00     0.217 HD
ENDBRANCH   2  31
TORSDOF 6
