REMARK  4 active torsions:
REMARK  status: ('A' for Active; 'I' for Inactive)
REMARK    1  A    between atoms: C3_3  and  C16_21 
REMARK    2  A    between atoms: C9_10  and  C11_13 
REMARK    3  A    between atoms: C11_13  and  N1_14 
REMARK    4  A    between atoms: C21_26  and  O5_27 
ROOT
ATOM      1  C1  <0> d   1      -3.857  -0.510   3.126  0.00  0.00     0.077 C 
ATOM      2  C2  <0> d   1      -2.386  -0.772   3.326  0.00  0.00     0.065 A 
ATOM      3  C3  <0> d   1      -1.963  -1.224   4.535  0.00  0.00     0.057 A 
ATOM      4  C4  <0> d   1      -0.526  -1.481   4.731  0.00  0.00     0.198 A 
ATOM      5  O1  <0> d   1      -0.088  -1.886   5.794  0.00  0.00    -0.286 OA
ATOM      6  C5  <0> d   1       0.358  -1.222   3.580  0.00  0.00     0.050 A 
ATOM      7  C6  <0> d   1       1.735  -1.433   3.662  0.00  0.00     0.021 A 
ATOM      8  C7  <0> d   1       2.525  -1.183   2.577  0.00  0.00     0.041 A 
ATOM      9  C8  <0> d   1       1.962  -0.724   1.388  0.00  0.00     0.118 A 
ATOM     10  C9  <0> d   1       0.598  -0.505   1.292  0.00  0.00     0.039 A 
ATOM     11  C10 <0> d   1      -0.220  -0.755   2.386  0.00  0.00     0.100 A 
ATOM     12  O2  <0> d   1      -1.550  -0.551   2.309  0.00  0.00    -0.313 OA
ATOM     13  O4  <0> d   1       2.758  -0.485   0.315  0.00  0.00    -0.191 OA
ENDROOT
BRANCH   3  14
ATOM     14  C16 <0> d   1      -2.929  -1.454   5.637  0.00  0.00     0.014 A 
ATOM     15  C21 <0> d   1      -3.233  -0.424   6.531  0.00  0.00     0.079 A 
ATOM     16  C20 <0> d   1      -4.137  -0.647   7.556  0.00  0.00     0.037 A 
ATOM     17  C19 <0> d   1      -4.735  -1.886   7.694  0.00  0.00     0.003 A 
ATOM     18  C18 <0> d   1      -4.436  -2.908   6.811  0.00  0.00     0.001 A 
ATOM     19  C17 <0> d   1      -3.542  -2.697   5.782  0.00  0.00     0.015 A 
BRANCH  15  20
ATOM     20  O5  <0> d   1      -2.645   0.794   6.394  0.00  0.00    -0.355 OA
ATOM     21  C22 <0> d   1      -3.004   1.798   7.344  0.00  0.00     0.210 C 
ENDBRANCH  15  20
ENDBRANCH   3  14
BRANCH  10  22
ATOM     22  C11 <0> d   1       0.002  -0.004   0.002  0.00  0.00     0.281 C 
BRANCH  22  23
ATOM     23  N1  <0> d   1      -0.018   1.465   0.010  0.00  0.00    -0.046 N 
ATOM     24  C15 <0> d   1       1.346   2.010  -0.000  0.00  0.00     0.402 C 
ATOM     25  O3  <0> d   1       1.291   3.436  -0.070  0.00  0.00    -0.364 OA
ATOM     26  C14 <0> d   1       0.609   4.044   1.031  0.00  0.00     0.171 C 
ATOM     27  C13 <0> d   1      -0.824   3.505   1.092  0.00  0.00     0.054 C 
ATOM     28  C12 <0> d   1      -0.778   1.975   1.160  0.00  0.00     0.240 C 
ATOM     29  H23 <0> d   1      -0.523   1.800  -0.907  0.00  0.00     0.282 HD
ENDBRANCH  22  23
ENDBRANCH  10  22
TORSDOF 4
