REMARK  4 active torsions:
REMARK  status: ('A' for Active; 'I' for Inactive)
REMARK    1  A    between atoms: C9_10  and  C10_11 
REMARK    2  A    between atoms: C14_15  and  O2_17 
REMARK    3  A    between atoms: N1_22  and  C20_25 
REMARK    4  A    between atoms: C20_25  and  C21_26 
ROOT
ATOM      1  C1  <0> d   1      -4.238   3.136  -0.151  0.00  0.00     0.054 C 
ATOM      2  C2  <0> d   1      -3.592   4.495  -0.223  0.00  0.00     0.007 A 
ATOM      3  C3  <0> d   1      -4.383   5.632  -0.333  0.00  0.00     0.087 A 
ATOM      4  C4  <0> d   1      -3.797   6.892  -0.399  0.00  0.00     0.005 A 
ATOM      5  C5  <0> d   1      -2.435   7.019  -0.360  0.00  0.00     0.030 A 
ATOM      6  C6  <0> d   1      -1.631   5.885  -0.252  0.00  0.00     0.052 A 
ATOM      7  C7  <0> d   1      -2.209   4.607  -0.182  0.00  0.00     0.099 A 
ATOM      8  O1  <0> d   1      -1.240   3.672  -0.082  0.00  0.00    -0.305 OA
ATOM      9  C8  <0> d   1      -0.004   4.226  -0.079  0.00  0.00     0.127 A 
ATOM     10  C9  <0> d   1       1.173   3.559   0.009  0.00  0.00     0.053 C 
ATOM     11  C17 <0> d   1      -0.172   5.685  -0.181  0.00  0.00     0.218 A 
ATOM     12  O3  <0> d   1       0.700   6.536  -0.204  0.00  0.00    -0.284 OA
ATOM     13  C18 <0> d   1      -4.648   8.132  -0.510  0.00  0.00     0.317 C 
ATOM     14  N1  <0> d   1      -6.002   7.763  -0.946  0.00  0.00     0.121 N 
ATOM     15  C19 <0> d   1      -6.518   6.660  -0.119  0.00  0.00     0.448 C 
ATOM     16  O4  <0> d   1      -5.734   5.492  -0.374  0.00  0.00    -0.320 OA
ENDROOT
BRANCH  10  17
ATOM     17  C10 <0> d   1       1.187   2.089  -0.003  0.00  0.00    -0.031 A 
ATOM     18  C15 <0> d   1      -0.015   1.375   0.025  0.00  0.00     0.048 A 
ATOM     19  C14 <0> d   1       0.009  -0.009   0.013  0.00  0.00     0.069 A 
ATOM     20  C13 <0> d   1       1.222  -0.684  -0.025  0.00  0.00     0.037 A 
ATOM     21  C12 <0> d   1       2.412   0.020  -0.052  0.00  0.00     0.004 A 
ATOM     22  C11 <0> d   1       2.404   1.398  -0.041  0.00  0.00     0.011 A 
BRANCH  19  23
ATOM     23  O2  <0> d   1      -1.157  -0.708   0.040  0.00  0.00    -0.356 OA
ATOM     24  C16 <0> d   1      -1.059  -2.133   0.026  0.00  0.00     0.210 C 
ENDBRANCH  19  23
ENDBRANCH  10  17
BRANCH  14  25
ATOM     25  C20 <0> d   1      -6.904   8.921  -0.900  0.00  0.00     0.334 C 
BRANCH  25  26
ATOM     26  C21 <0> d   1      -6.916   9.494   0.494  0.00  0.00     0.062 A 
ATOM     27  N2  <0> d   1      -7.726   8.983   1.401  0.00  0.00    -0.264 NA
ATOM     28  C25 <0> d   1      -7.771   9.452   2.633  0.00  0.00     0.117 A 
ATOM     29  C24 <0> d   1      -6.963  10.505   3.018  0.00  0.00     0.019 A 
ATOM     30  C23 <0> d   1      -6.098  11.067   2.092  0.00  0.00     0.003 A 
ATOM     31  C22 <0> d   1      -6.074  10.544   0.808  0.00  0.00     0.029 A 
ENDBRANCH  25  26
ENDBRANCH  14  25
TORSDOF 4
