REMARK  6 active torsions:
REMARK  status: ('A' for Active; 'I' for Inactive)
REMARK    1  A    between atoms: C2_2  and  C5_5 
REMARK    2  A    between atoms: C11_11  and  C14_16 
REMARK    3  A    between atoms: C14_16  and  N1_17 
REMARK    4  A    between atoms: N2_20  and  C19_23 
REMARK    5  A    between atoms: C19_23  and  C20_24 
REMARK    6  A    between atoms: C19_23  and  C26_30 
ROOT
ATOM      1  N1  <0> d   1       2.710  -3.652   2.055  0.00  0.00     0.096 N 
ATOM      2  C15 <0> d   1       2.770  -2.210   2.328  0.00  0.00     0.303 C 
ATOM      3  C16 <0> d   1       3.630  -1.964   3.571  0.00  0.00     0.304 C 
ATOM      4  N2  <0> d   1       4.975  -2.511   3.348  0.00  0.00     0.105 N 
ATOM      5  C17 <0> d   1       4.915  -3.954   3.075  0.00  0.00     0.304 C 
ATOM      6  C18 <0> d   1       4.055  -4.200   1.833  0.00  0.00     0.303 C 
ENDROOT
BRANCH   1   7
ATOM      7  C14 <0> d   1       1.831  -3.936   0.913  0.00  0.00     0.312 C 
BRANCH   7   8
ATOM      8  C11 <0> d   1       0.395  -3.718   1.317  0.00  0.00    -0.011 A 
ATOM      9  C9  <0> d   1      -0.301  -4.684   2.172  0.00  0.00     0.007 A 
ATOM     10  C8  <0> d   1      -1.640  -4.441   2.525  0.00  0.00     0.090 A 
ATOM     11  C10 <0> d   1       0.346  -5.833   2.637  0.00  0.00     0.022 A 
ATOM     12  C7  <0> d   1      -2.307  -5.351   3.335  0.00  0.00     0.039 A 
ATOM     13  O2  <0> d   1      -2.263  -3.331   2.075  0.00  0.00    -0.275 OA
ATOM     14  C6  <0> d   1      -1.651  -6.479   3.783  0.00  0.00     0.011 A 
ATOM     15  C5  <0> d   1      -0.330  -6.715   3.433  0.00  0.00    -0.050 A 
ATOM     16  C13 <0> d   1      -1.632  -2.442   1.292  0.00  0.00     0.288 A 
ATOM     17  C12 <0> d   1      -0.288  -2.622   0.899  0.00  0.00     0.092 A 
ATOM     18  O1  <0> d   1      -2.234  -1.455   0.910  0.00  0.00    -0.260 OA
BRANCH  15  19
ATOM     19  C2  <0> d   1       0.367  -7.954   3.934  0.00  0.00    -0.024 C 
ATOM     20  C1  <0> d   1       1.583  -7.552   4.771  0.00  0.00     0.019 C 
ATOM     21  C3  <0> d   1      -0.600  -8.768   4.797  0.00  0.00     0.019 C 
ATOM     22  C4  <0> d   1       0.824  -8.800   2.744  0.00  0.00     0.019 C 
ENDBRANCH  15  19
ENDBRANCH   7   8
ENDBRANCH   1   7
BRANCH   4  23
ATOM     23  C19 <0> d   1       5.854  -2.228   4.491  0.00  0.00     0.289 C 
BRANCH  23  24
ATOM     24  C20 <0> d   1       7.259  -2.666   4.164  0.00  0.00    -0.021 A 
ATOM     25  C25 <0> d   1       8.005  -3.351   5.105  0.00  0.00     0.010 A 
ATOM     26  C24 <0> d   1       9.293  -3.753   4.806  0.00  0.00     0.001 A 
ATOM     27  C23 <0> d   1       9.835  -3.470   3.566  0.00  0.00     0.000 A 
ATOM     28  C22 <0> d   1       9.088  -2.786   2.625  0.00  0.00     0.001 A 
ATOM     29  C21 <0> d   1       7.798  -2.388   2.922  0.00  0.00     0.010 A 
ENDBRANCH  23  24
BRANCH  23  30
ATOM     30  C26 <0> d   1       5.843  -0.749   4.778  0.00  0.00    -0.021 A 
ATOM     31  C31 <0> d   1       5.717  -0.299   6.079  0.00  0.00     0.010 A 
ATOM     32  C30 <0> d   1       5.707   1.058   6.343  0.00  0.00     0.001 A 
ATOM     33  C29 <0> d   1       5.824   1.965   5.306  0.00  0.00     0.000 A 
ATOM     34  C28 <0> d   1       5.950   1.514   4.005  0.00  0.00     0.001 A 
ATOM     35  C27 <0> d   1       5.965   0.158   3.742  0.00  0.00     0.010 A 
ENDBRANCH  23  30
ENDBRANCH   4  23
TORSDOF 6
