REMARK  6 active torsions:
REMARK  status: ('A' for Active; 'I' for Inactive)
REMARK    1  A    between atoms: C5_5  and  C17_20 
REMARK    2  A    between atoms: C10_11  and  C11_12 
REMARK    3  A    between atoms: C17_20  and  N1_21 
REMARK    4  A    between atoms: N2_24  and  C22_27 
REMARK    5  A    between atoms: C22_27  and  C23_28 
REMARK    6  A    between atoms: C23_28  and  O3_29 
ROOT
ATOM      1  C1  <0> d   1       2.395   1.513   3.540  0.00  0.00     0.049 C 
ATOM      2  C2  <0> d   1       1.881   1.420   2.126  0.00  0.00    -0.042 A 
ATOM      3  C3  <0> d   1       0.621   0.949   1.886  0.00  0.00     0.048 A 
ATOM      4  C4  <0> d   1       0.146   0.858   0.581  0.00  0.00     0.118 A 
ATOM      5  C5  <0> d   1       0.937   1.252  -0.487  0.00  0.00     0.039 A 
ATOM      6  C6  <0> d   1       2.218   1.739  -0.259  0.00  0.00     0.102 A 
ATOM      7  C7  <0> d   1       2.688   1.821   1.062  0.00  0.00     0.057 A 
ATOM      8  C8  <0> d   1       4.056   2.365   0.982  0.00  0.00     0.219 A 
ATOM      9  O1  <0> d   1       4.822   2.595   1.902  0.00  0.00    -0.284 OA
ATOM     10  C9  <0> d   1       4.289   2.569  -0.456  0.00  0.00     0.128 A 
ATOM     11  C10 <0> d   1       5.420   3.059  -1.023  0.00  0.00     0.053 C 
ATOM     12  O2  <0> d   1       3.170   2.180  -1.110  0.00  0.00    -0.305 OA
ATOM     13  O4  <0> d   1      -1.105   0.383   0.352  0.00  0.00    -0.191 OA
ENDROOT
BRANCH   5  14
ATOM     14  C17 <0> d   1       0.407   1.153  -1.894  0.00  0.00     0.279 C 
BRANCH  14  15
ATOM     15  N1  <0> d   1      -0.271   2.407  -2.251  0.00  0.00    -0.064 N 
ATOM     16  C21 <0> d   1      -0.592   2.442  -3.685  0.00  0.00     0.265 C 
ATOM     17  C20 <0> d   1      -1.224   3.792  -4.030  0.00  0.00     0.300 C 
ATOM     18  N2  <0> d   1      -2.433   3.987  -3.218  0.00  0.00     0.093 N 
ATOM     19  C19 <0> d   1      -2.111   3.952  -1.784  0.00  0.00     0.300 C 
ATOM     20  C18 <0> d   1      -1.480   2.601  -1.439  0.00  0.00     0.265 C 
ATOM     21  H25 <0> d   1       0.419   3.236  -2.037  0.00  0.00     0.280 HD
BRANCH  18  22
ATOM     22  C22 <0> d   1      -3.110   5.240  -3.575  0.00  0.00     0.298 C 
BRANCH  22  23
ATOM     23  C23 <0> d   1      -3.860   5.056  -4.896  0.00  0.00     0.194 C 
BRANCH  23  24
ATOM     24  O3  <0> d   1      -4.889   4.079  -4.728  0.00  0.00    -0.399 OA
ATOM     25  H24 <0> d   1      -5.538   3.812  -5.575  0.00  0.00     0.209 HD
ENDBRANCH  23  24
ENDBRANCH  22  23
ENDBRANCH  18  22
ENDBRANCH  14  15
ENDBRANCH   5  14
BRANCH  11  26
ATOM     26  C11 <0> d   1       5.463   3.320  -2.468  0.00  0.00    -0.033 A 
ATOM     27  C16 <0> d   1       4.383   2.956  -3.281  0.00  0.00     0.014 A 
ATOM     28  C15 <0> d   1       4.431   3.204  -4.635  0.00  0.00     0.043 A 
ATOM     29  C14 <0> d   1       5.545   3.811  -5.194  0.00  0.00     0.116 A 
ATOM     30  C13 <0> d   1       6.619   4.174  -4.395  0.00  0.00     0.043 A 
ATOM     31  F1  <0> d   1       5.585   4.051  -6.523  0.00  0.00    -0.206 F 
ATOM     32  C12 <0> d   1       6.583   3.938  -3.038  0.00  0.00     0.014 A 
ENDBRANCH  11  26
TORSDOF 6
