REMARK  8 active torsions:
REMARK  status: ('A' for Active; 'I' for Inactive)
REMARK    1  A    between atoms: C2_2  and  C3_3 
REMARK    2  A    between atoms: C3_3  and  N1_4 
REMARK    3  A    between atoms: N1_4  and  C4_5 
REMARK    4  A    between atoms: N1_4  and  C7_8 
REMARK    5  A    between atoms: C4_5  and  C5_6 
REMARK    6  A    between atoms: C7_8  and  C8_9 
REMARK    7  A    between atoms: C9_10  and  O4_30 
REMARK    8  A    between atoms: C15_17  and  C16_18 
ROOT
ATOM      1  C8  <0> d   1       1.018  -1.091  -0.429  0.00  0.00     0.036 A 
ATOM      2  C9  <0> d   1       2.391  -0.909  -0.459  0.00  0.00     0.076 A 
ATOM      3  C10 <0> d   1       2.933   0.345  -0.728  0.00  0.00     0.045 A 
ATOM      4  C11 <0> d   1       2.112   1.412  -0.963  0.00  0.00    -0.042 A 
ATOM      5  C12 <0> d   1       0.728   1.243  -0.935  0.00  0.00     0.057 A 
ATOM      6  C13 <0> d   1       0.169  -0.017  -0.666  0.00  0.00     0.101 A 
ATOM      7  O1  <0> d   1      -1.178   0.068  -0.693  0.00  0.00    -0.305 OA
ATOM      8  C14 <0> d   1      -1.598   1.325  -0.968  0.00  0.00     0.129 A 
ATOM      9  C15 <0> d   1      -2.892   1.737  -1.070  0.00  0.00     0.078 C 
ATOM     10  C24 <0> d   1      -0.405   2.163  -1.142  0.00  0.00     0.219 A 
ATOM     11  O3  <0> d   1      -0.361   3.354  -1.399  0.00  0.00    -0.284 OA
ATOM     12  C25 <0> d   1       2.702   2.768  -1.253  0.00  0.00     0.049 C 
ENDROOT
BRANCH   9  13
ATOM     13  C16 <0> d   1      -3.946   0.811  -0.882  0.00  0.00     0.079 A 
ATOM     14  O2  <0> d   1      -3.792  -0.500  -0.598  0.00  0.00    -0.310 OA
ATOM     15  C23 <0> d   1      -5.001  -1.089  -0.484  0.00  0.00     0.086 A 
ATOM     16  C18 <0> d   1      -5.978  -0.101  -0.707  0.00  0.00     0.000 A 
ATOM     17  C22 <0> d   1      -5.400  -2.390  -0.208  0.00  0.00     0.038 A 
ATOM     18  C17 <0> d   1      -5.276   1.106  -0.954  0.00  0.00     0.051 A 
ATOM     19  C19 <0> d   1      -7.335  -0.437  -0.650  0.00  0.00     0.014 A 
ATOM     20  C20 <0> d   1      -7.704  -1.723  -0.378  0.00  0.00     0.001 A 
ATOM     21  C21 <0> d   1      -6.743  -2.700  -0.157  0.00  0.00     0.003 A 
ENDBRANCH   9  13
BRANCH   1  22
ATOM     22  C7  <0> d   1       0.445  -2.454  -0.137  0.00  0.00     0.279 C 
BRANCH  22  23
ATOM     23  N1  <0> d   1       0.267  -3.190  -1.396  0.00  0.00    -0.067 N 
ATOM     24  H27 <0> d   1      -0.304  -2.550  -2.084  0.00  0.00     0.280 HD
BRANCH  23  25
ATOM     25  C3  <0> d   1       1.563  -3.483  -2.022  0.00  0.00     0.234 C 
BRANCH  25  26
ATOM     26  C2  <0> d   1       2.347  -4.457  -1.142  0.00  0.00     0.023 C 
ATOM     27  C1  <0> d   1       3.747  -4.658  -1.724  0.00  0.00     0.007 C 
ENDBRANCH  25  26
ENDBRANCH  23  25
BRANCH  23  28
ATOM     28  C4  <0> d   1      -0.504  -4.422  -1.181  0.00  0.00     0.234 C 
BRANCH  28  29
ATOM     29  C5  <0> d   1      -0.962  -4.979  -2.530  0.00  0.00     0.023 C 
ATOM     30  C6  <0> d   1      -1.871  -6.188  -2.301  0.00  0.00     0.007 C 
ENDBRANCH  28  29
ENDBRANCH  23  28
ENDBRANCH  22  23
ENDBRANCH   1  22
BRANCH   2  31
ATOM     31  O4  <0> d   1       3.215  -1.962  -0.225  0.00  0.00    -0.360 OA
ATOM     32  H28 <0> d   1       4.306  -1.823  -0.248  0.00  0.00     0.217 HD
ENDBRANCH   2  31
TORSDOF 8
