REMARK  5 active torsions:
REMARK  status: ('A' for Active; 'I' for Inactive)
REMARK    1  A    between atoms: N1_7  and  C7_8 
REMARK    2  A    between atoms: C7_8  and  C8_9 
REMARK    3  A    between atoms: C9_10  and  O4_32 
REMARK    4  A    between atoms: C15_17  and  C16_18 
REMARK    5  A    between atoms: C21_24  and  O2_27 
ROOT
ATOM      1  C8  <0> d   1      -2.003  -3.512   0.118  0.00  0.00     0.036 A 
ATOM      2  C9  <0> d   1      -2.830  -4.624   0.148  0.00  0.00     0.076 A 
ATOM      3  C10 <0> d   1      -4.213  -4.476   0.204  0.00  0.00     0.038 A 
ATOM      4  C11 <0> d   1      -4.771  -3.229   0.231  0.00  0.00     0.021 A 
ATOM      5  C12 <0> d   1      -3.952  -2.101   0.202  0.00  0.00     0.051 A 
ATOM      6  C13 <0> d   1      -2.555  -2.239   0.145  0.00  0.00     0.101 A 
ATOM      7  O1  <0> d   1      -1.997  -1.009   0.128  0.00  0.00    -0.305 OA
ATOM      8  C14 <0> d   1      -2.940  -0.037   0.169  0.00  0.00     0.128 A 
ATOM      9  C15 <0> d   1      -2.701   1.304   0.165  0.00  0.00     0.055 C 
ATOM     10  C26 <0> d   1      -4.219  -0.652   0.224  0.00  0.00     0.218 A 
ATOM     11  O3  <0> d   1      -5.305  -0.099   0.276  0.00  0.00    -0.284 OA
ENDROOT
BRANCH   9  12
ATOM     12  C16 <0> d   1      -1.328   1.802   0.111  0.00  0.00    -0.005 A 
ATOM     13  C19 <0> d   1      -0.897   3.213   0.102  0.00  0.00     0.005 A 
ATOM     14  C18 <0> d   1       0.505   3.190   0.038  0.00  0.00     0.045 A 
ATOM     15  C20 <0> d   1      -1.576   4.428   0.137  0.00  0.00     0.051 A 
ATOM     16  N2  <0> d   1       0.902   1.867   0.015  0.00  0.00    -0.360 N 
ATOM     17  C23 <0> d   1       1.208   4.390   0.011  0.00  0.00     0.033 A 
ATOM     18  C17 <0> d   1      -0.176   1.046   0.061  0.00  0.00     0.103 A 
ATOM     19  C25 <0> d   1       2.294   1.414  -0.050  0.00  0.00     0.156 C 
ATOM     20  C22 <0> d   1       0.528   5.588   0.046  0.00  0.00     0.039 A 
ATOM     21  C21 <0> d   1      -0.862   5.612   0.109  0.00  0.00     0.069 A 
BRANCH  21  22
ATOM     22  O2  <0> d   1      -1.519   6.802   0.143  0.00  0.00    -0.356 OA
ATOM     23  C24 <0> d   1      -0.719   7.986   0.111  0.00  0.00     0.210 C 
ENDBRANCH  21  22
ENDBRANCH   9  12
BRANCH   1  24
ATOM     24  C7  <0> d   1      -0.508  -3.685   0.057  0.00  0.00     0.279 C 
BRANCH  24  25
ATOM     25  N1  <0> d   1       0.034  -3.748   1.421  0.00  0.00    -0.063 N 
ATOM     26  C2  <0> d   1       1.407  -4.266   1.419  0.00  0.00     0.184 C 
ATOM     27  C1  <0> d   1       1.443  -5.612   0.691  0.00  0.00     0.040 C 
ATOM     28  C3  <0> d   1       1.886  -4.454   2.861  0.00  0.00     0.033 C 
ATOM     29  C4  <0> d   1       1.829  -3.110   3.591  0.00  0.00     0.004 C 
ATOM     30  C5  <0> d   1       0.398  -2.568   3.537  0.00  0.00     0.028 C 
ATOM     31  C6  <0> d   1      -0.037  -2.435   2.076  0.00  0.00     0.235 C 
ATOM     32  H28 <0> d   1      -0.587  -4.446   2.002  0.00  0.00     0.280 HD
ENDBRANCH  24  25
ENDBRANCH   1  24
BRANCH   2  33
ATOM     33  O4  <0> d   1      -2.287  -5.867   0.121  0.00  0.00    -0.360 OA
ATOM     34  H29 <0> d   1      -2.938  -6.753   0.145  0.00  0.00     0.217 HD
ENDBRANCH   2  33
TORSDOF 5
