REMARK  7 active torsions:
REMARK  status: ('A' for Active; 'I' for Inactive)
REMARK    1  A    between atoms: C3_3  and  C17_24 
REMARK    2  A    between atoms: C4_4  and  C5_8 
REMARK    3  A    between atoms: C8_11  and  O2_15 
REMARK    4  A    between atoms: O2_15  and  C11_16 
REMARK    5  A    between atoms: C11_16  and  C12_17 
REMARK    6  A    between atoms: C12_17  and  N3_18 
REMARK    7  A    between atoms: C20_27  and  O4_30 
ROOT
ATOM      1  C5  <0> d   1       0.157  -2.342   2.496  0.00  0.00     0.032 A 
ATOM      2  C6  <0> d   1      -0.205  -2.263   3.840  0.00  0.00     0.019 A 
ATOM      3  C7  <0> d   1      -0.369  -3.416   4.578  0.00  0.00     0.038 A 
ATOM      4  C8  <0> d   1      -0.176  -4.658   3.986  0.00  0.00     0.071 A 
ATOM      5  C9  <0> d   1       0.185  -4.745   2.650  0.00  0.00     0.077 A 
ATOM      6  C10 <0> d   1       0.346  -3.592   1.899  0.00  0.00     0.122 A 
ATOM      7  O1  <0> d   1       0.694  -3.676   0.589  0.00  0.00    -0.191 OA
ENDROOT
BRANCH   1   8
ATOM      8  C4  <0> d   1       0.334  -1.103   1.700  0.00  0.00     0.103 A 
ATOM      9  C3  <0> d   1       1.055   0.050   2.099  0.00  0.00     0.029 A 
ATOM     10  C2  <0> d   1       0.973   0.956   1.085  0.00  0.00     0.037 A 
ATOM     11  C1  <0> d   1       1.593   2.329   1.069  0.00  0.00     0.070 C 
ATOM     12  N2  <0> d   1       0.234   0.406   0.099  0.00  0.00    -0.281 N 
ATOM     13  N1  <0> d   1      -0.150  -0.880   0.498  0.00  0.00    -0.173 NA
ATOM     14  H1  <0> d   1       0.010   0.829  -0.745  0.00  0.00     0.189 HD
BRANCH   9  15
ATOM     15  C17 <0> d   1       1.769   0.237   3.387  0.00  0.00    -0.021 A 
ATOM     16  C22 <0> d   1       1.308   1.173   4.311  0.00  0.00     0.015 A 
ATOM     17  C21 <0> d   1       1.970   1.339   5.510  0.00  0.00     0.037 A 
ATOM     18  C20 <0> d   1       3.101   0.585   5.791  0.00  0.00     0.068 A 
ATOM     19  C19 <0> d   1       3.565  -0.344   4.870  0.00  0.00     0.037 A 
ATOM     20  C18 <0> d   1       2.904  -0.519   3.672  0.00  0.00     0.015 A 
BRANCH  18  21
ATOM     21  O4  <0> d   1       3.754   0.756   6.970  0.00  0.00    -0.356 OA
ATOM     22  C23 <0> d   1       3.222   1.728   7.872  0.00  0.00     0.210 C 
ENDBRANCH  18  21
ENDBRANCH   9  15
ENDBRANCH   1   8
BRANCH   4  23
ATOM     23  O2  <0> d   1      -0.339  -5.790   4.719  0.00  0.00    -0.349 OA
BRANCH  23  24
ATOM     24  C11 <0> d   1      -0.124  -7.034   4.048  0.00  0.00     0.206 C 
BRANCH  24  25
ATOM     25  C12 <0> d   1      -0.353  -8.187   5.026  0.00  0.00     0.299 C 
BRANCH  25  26
ATOM     26  N3  <0> d   1      -1.761  -8.202   5.445  0.00  0.00     0.094 N 
ATOM     27  C16 <0> d   1      -2.621  -8.746   4.384  0.00  0.00     0.298 C 
ATOM     28  C15 <0> d   1      -4.082  -8.688   4.838  0.00  0.00     0.198 C 
ATOM     29  O3  <0> d   1      -4.222  -9.404   6.068  0.00  0.00    -0.388 OA
ATOM     30  C14 <0> d   1      -3.399  -8.900   7.124  0.00  0.00     0.198 C 
ATOM     31  C13 <0> d   1      -1.931  -8.961   6.693  0.00  0.00     0.298 C 
ENDBRANCH  25  26
ENDBRANCH  24  25
ENDBRANCH  23  24
ENDBRANCH   4  23
TORSDOF 7
