REMARK  2 active torsions:
REMARK  status: ('A' for Active; 'I' for Inactive)
REMARK    1  A    between atoms: C6_6  and  C7_7 
REMARK    2  A    between atoms: C9_9  and  C10_13 
ROOT
ATOM      1  C7  <0> d   1      -1.268  -0.763   0.009  0.00  0.00     0.062 A 
ATOM      2  C8  <0> d   1      -2.525  -0.232   0.023  0.00  0.00     0.066 A 
ATOM      3  C9  <0> d   1      -3.441  -1.298   0.025  0.00  0.00     0.092 A 
ATOM      4  N1  <0> d   1      -2.762  -2.426   0.013  0.00  0.00    -0.174 NA
ATOM      5  N2  <0> d   1      -1.395  -2.121  -0.003  0.00  0.00    -0.277 N 
ATOM      6  H1  <0> d   1      -0.668  -2.762  -0.018  0.00  0.00     0.189 HD
ENDROOT
BRANCH   1   7
ATOM      7  C6  <0> d   1       0.002  -0.004   0.002  0.00  0.00    -0.005 A 
ATOM      8  C1  <0> d   1      -0.017   1.391   0.010  0.00  0.00     0.017 A 
ATOM      9  C2  <0> d   1       1.169   2.096   0.002  0.00  0.00     0.040 A 
ATOM     10  C3  <0> d   1       2.383   1.423  -0.012  0.00  0.00     0.102 A 
ATOM     11  O3  <0> d   1       3.540   2.139  -0.023  0.00  0.00    -0.346 OA
ATOM     12  C4  <0> d   1       2.408   0.032  -0.018  0.00  0.00     0.103 A 
ATOM     13  C17 <0> d   1       4.734   1.439   0.343  0.00  0.00     0.202 C 
ATOM     14  C16 <0> d   1       4.753   0.099  -0.405  0.00  0.00     0.202 C 
ATOM     15  O2  <0> d   1       3.590  -0.643  -0.024  0.00  0.00    -0.346 OA
ATOM     16  C5  <0> d   1       1.222  -0.681  -0.012  0.00  0.00     0.053 A 
ENDBRANCH   1   7
BRANCH   3  17
ATOM     17  C10 <0> d   1      -4.919  -1.173   0.039  0.00  0.00     0.034 A 
ATOM     18  C15 <0> d   1      -5.720  -2.318   0.040  0.00  0.00     0.120 A 
ATOM     19  C14 <0> d   1      -7.100  -2.194   0.060  0.00  0.00     0.044 A 
ATOM     20  O1  <0> d   1      -5.147  -3.550   0.028  0.00  0.00    -0.191 OA
ATOM     21  C13 <0> d   1      -7.683  -0.941   0.066  0.00  0.00     0.045 A 
ATOM     22  C12 <0> d   1      -6.892   0.197   0.059  0.00  0.00     0.117 A 
ATOM     23  C11 <0> d   1      -5.514   0.086   0.046  0.00  0.00     0.059 A 
ATOM     24  F1  <0> d   1      -7.470   1.418   0.065  0.00  0.00    -0.206 F 
ENDBRANCH   3  17
TORSDOF 2
