REMARK  6 active torsions:
REMARK  status: ('A' for Active; 'I' for Inactive)
REMARK    1  A    between atoms: N1_4  and  C7_9 
REMARK    2  A    between atoms: C7_9  and  C8_10 
REMARK    3  A    between atoms: C8_10  and  O2_11 
REMARK    4  A    between atoms: O2_11  and  C9_12 
REMARK    5  A    between atoms: C12_15  and  C15_19 
REMARK    6  A    between atoms: C16_20  and  C18_25 
ROOT
ATOM      1  C9  <0> d   1       6.296   0.426  -1.502  0.00  0.00     0.071 A 
ATOM      2  C10 <0> d   1       6.535   1.542  -2.294  0.00  0.00     0.038 A 
ATOM      3  C11 <0> d   1       7.763   2.167  -2.258  0.00  0.00     0.019 A 
ATOM      4  C12 <0> d   1       8.769   1.679  -1.426  0.00  0.00     0.032 A 
ATOM      5  C13 <0> d   1       8.528   0.555  -0.629  0.00  0.00     0.122 A 
ATOM      6  C14 <0> d   1       7.290  -0.063  -0.667  0.00  0.00     0.077 A 
ATOM      7  O3  <0> d   1       9.504   0.075   0.184  0.00  0.00    -0.191 OA
ENDROOT
BRANCH   4   8
ATOM      8  C15 <0> d   1      10.091   2.349  -1.386  0.00  0.00     0.102 A 
ATOM      9  C16 <0> d   1      10.870   2.728  -2.509  0.00  0.00     0.022 A 
ATOM     10  C17 <0> d   1      12.008   3.311  -2.039  0.00  0.00     0.124 A 
ATOM     11  N2  <0> d   1      11.953   3.301  -0.692  0.00  0.00    -0.288 N 
ATOM     12  H3  <0> d   1      12.631   3.652  -0.093  0.00  0.00     0.188 HD
ATOM     13  N3  <0> d   1      10.748   2.703  -0.303  0.00  0.00    -0.174 NA
BRANCH   9  14
ATOM     14  C18 <0> d   1      10.511   2.526  -3.934  0.00  0.00    -0.022 A 
ATOM     15  C23 <0> d   1      10.502   3.608  -4.813  0.00  0.00     0.014 A 
ATOM     16  C22 <0> d   1      10.174   3.413  -6.139  0.00  0.00     0.020 A 
ATOM     17  C21 <0> d   1       9.841   2.149  -6.594  0.00  0.00     0.011 A 
ATOM     18  C20 <0> d   1       9.842   1.073  -5.724  0.00  0.00     0.020 A 
ATOM     19 Br1  <0> d   1       9.384   1.892  -8.411  0.00  0.00    -0.051 Br
ATOM     20  C19 <0> d   1      10.175   1.255  -4.397  0.00  0.00     0.014 A 
ENDBRANCH   9  14
ENDBRANCH   4   8
BRANCH   1  21
ATOM     21  O2  <0> d   1       5.083  -0.186  -1.542  0.00  0.00    -0.349 OA
BRANCH  21  22
ATOM     22  C8  <0> d   1       4.105   0.369  -2.424  0.00  0.00     0.206 C 
BRANCH  22  23
ATOM     23  C7  <0> d   1       2.815  -0.447  -2.333  0.00  0.00     0.299 C 
BRANCH  23  24
ATOM     24  N1  <0> d   1       2.257  -0.332  -0.979  0.00  0.00     0.095 N 
ATOM     25  C3  <0> d   1       1.607   0.972  -0.786  0.00  0.00     0.303 C 
ATOM     26  C2  <0> d   1       1.094   1.072   0.653  0.00  0.00     0.146 C 
ATOM     27  C1  <0> d   1       2.276   1.014   1.622  0.00  0.00     0.041 C 
ATOM     28  O1  <0> d   1       0.207  -0.018   0.916  0.00  0.00    -0.378 OA
ATOM     29  C5  <0> d   1       0.808  -1.304   0.738  0.00  0.00     0.146 C 
ATOM     30  C4  <0> d   1       1.319  -1.429  -0.700  0.00  0.00     0.303 C 
ATOM     31  C6  <0> d   1      -0.229  -2.396   1.008  0.00  0.00     0.041 C 
ENDBRANCH  23  24
ENDBRANCH  22  23
ENDBRANCH  21  22
ENDBRANCH   1  21
TORSDOF 6
