REMARK  3 active torsions:
REMARK  status: ('A' for Active; 'I' for Inactive)
REMARK    1  A    between atoms: C9_10  and  C10_11 
REMARK    2  A    between atoms: C12_13  and  O3_19 
REMARK    3  A    between atoms: C15_16  and  O2_17 
ROOT
ATOM      1  C1  <0> d   1      -3.244  -7.199   0.177  0.00  0.00     0.054 C 
ATOM      2  C2  <0> d   1      -1.747  -7.369   0.231  0.00  0.00     0.009 A 
ATOM      3  C3  <0> d   1      -1.197  -8.637   0.333  0.00  0.00     0.116 A 
ATOM      4  C4  <0> d   1       0.184  -8.808   0.385  0.00  0.00     0.041 A 
ATOM      5  C5  <0> d   1       1.012  -7.722   0.335  0.00  0.00     0.021 A 
ATOM      6  C6  <0> d   1       0.472  -6.440   0.233  0.00  0.00     0.051 A 
ATOM      7  C7  <0> d   1      -0.919  -6.255   0.181  0.00  0.00     0.099 A 
ATOM      8  O1  <0> d   1      -1.200  -4.937   0.084  0.00  0.00    -0.305 OA
ATOM      9  C8  <0> d   1      -0.076  -4.183   0.065  0.00  0.00     0.128 A 
ATOM     10  C9  <0> d   1      -0.019  -2.829  -0.025  0.00  0.00     0.055 C 
ATOM     11  C18 <0> d   1       1.073  -5.096   0.154  0.00  0.00     0.218 A 
ATOM     12  O4  <0> d   1       2.257  -4.806   0.162  0.00  0.00    -0.284 OA
ATOM     13  O5  <0> d   1      -2.011  -9.722   0.383  0.00  0.00    -0.192 OA
ENDROOT
BRANCH  10  14
ATOM     14  C10 <0> d   1      -1.252  -2.037   0.046  0.00  0.00     0.003 A 
ATOM     15  C15 <0> d   1      -1.193  -0.660   0.315  0.00  0.00     0.078 A 
ATOM     16  C14 <0> d   1      -2.362   0.081   0.374  0.00  0.00     0.040 A 
ATOM     17  C13 <0> d   1      -3.584  -0.533   0.174  0.00  0.00     0.039 A 
ATOM     18  C12 <0> d   1      -3.652  -1.896  -0.088  0.00  0.00     0.069 A 
ATOM     19  C11 <0> d   1      -2.496  -2.651  -0.150  0.00  0.00     0.051 A 
BRANCH  15  20
ATOM     20  O2  <0> d   1       0.007  -0.055   0.511  0.00  0.00    -0.355 OA
ATOM     21  C16 <0> d   1      -0.010   1.349   0.774  0.00  0.00     0.210 C 
ENDBRANCH  15  20
BRANCH  18  22
ATOM     22  O3  <0> d   1      -4.859  -2.490  -0.284  0.00  0.00    -0.356 OA
ATOM     23  C17 <0> d   1      -6.014  -1.651  -0.205  0.00  0.00     0.210 C 
ENDBRANCH  18  22
ENDBRANCH  10  14
TORSDOF 3
