REMARK  5 active torsions:
REMARK  status: ('A' for Active; 'I' for Inactive)
REMARK    1  A    between atoms: C3_3  and  O4_22 
REMARK    2  A    between atoms: C9_10  and  C11_13 
REMARK    3  A    between atoms: C11_13  and  N1_14 
REMARK    4  A    between atoms: O4_22  and  C18_23 
REMARK    5  A    between atoms: C23_28  and  O5_29 
ROOT
ATOM      1  C1  <0> d   1       5.985   2.341  -0.041  0.00  0.00     0.080 C 
ATOM      2  C2  <0> d   1       4.735   1.500  -0.035  0.00  0.00     0.087 A 
ATOM      3  C3  <0> d   1       4.860   0.157  -0.043  0.00  0.00     0.156 A 
ATOM      4  C4  <0> d   1       3.691  -0.656  -0.037  0.00  0.00     0.221 A 
ATOM      5  O1  <0> d   1       3.765  -1.874  -0.044  0.00  0.00    -0.284 OA
ATOM      6  C5  <0> d   1       2.390   0.033  -0.021  0.00  0.00     0.052 A 
ATOM      7  C6  <0> d   1       1.189  -0.679  -0.013  0.00  0.00     0.021 A 
ATOM      8  C7  <0> d   1       0.002  -0.004   0.002  0.00  0.00     0.041 A 
ATOM      9  C8  <0> d   1      -0.017   1.389   0.010  0.00  0.00     0.118 A 
ATOM     10  C9  <0> d   1       1.165   2.110   0.002  0.00  0.00     0.039 A 
ATOM     11  C10 <0> d   1       2.380   1.440  -0.013  0.00  0.00     0.101 A 
ATOM     12  O2  <0> d   1       3.546   2.117  -0.020  0.00  0.00    -0.311 OA
ATOM     13  O3  <0> d   1      -1.205   2.046   0.019  0.00  0.00    -0.191 OA
ENDROOT
BRANCH   3  14
ATOM     14  O4  <0> d   1       6.094  -0.416  -0.058  0.00  0.00    -0.301 OA
BRANCH  14  15
ATOM     15  C18 <0> d   1       6.662  -0.678  -1.265  0.00  0.00     0.109 A 
ATOM     16  C23 <0> d   1       7.923  -1.264  -1.330  0.00  0.00     0.102 A 
ATOM     17  C22 <0> d   1       8.497  -1.530  -2.563  0.00  0.00     0.039 A 
ATOM     18  C21 <0> d   1       7.817  -1.214  -3.724  0.00  0.00     0.003 A 
ATOM     19  C20 <0> d   1       6.565  -0.632  -3.660  0.00  0.00     0.003 A 
ATOM     20  C19 <0> d   1       5.984  -0.369  -2.433  0.00  0.00     0.040 A 
BRANCH  16  21
ATOM     21  O5  <0> d   1       8.590  -1.575  -0.186  0.00  0.00    -0.353 OA
ATOM     22  C24 <0> d   1       9.879  -2.174  -0.330  0.00  0.00     0.210 C 
ENDBRANCH  16  21
ENDBRANCH  14  15
ENDBRANCH   3  14
BRANCH  10  23
ATOM     23  C11 <0> d   1       1.133   3.617   0.010  0.00  0.00     0.279 C 
BRANCH  23  24
ATOM     24  N1  <0> d   1       1.135   4.099   1.398  0.00  0.00    -0.067 N 
ATOM     25  C16 <0> d   1       1.342   5.552   1.449  0.00  0.00     0.239 C 
ATOM     26  C15 <0> d   1       1.484   5.997   2.906  0.00  0.00     0.007 C 
ATOM     27  C14 <0> d   1       0.217   5.616   3.677  0.00  0.00     0.007 C 
ATOM     28  C17 <0> d   1       1.679   7.514   2.961  0.00  0.00     0.011 C 
ATOM     29  C13 <0> d   1      -0.002   4.104   3.567  0.00  0.00     0.028 C 
ATOM     30  C12 <0> d   1      -0.101   3.714   2.091  0.00  0.00     0.235 C 
ATOM     31  H27 <0> d   1       1.976   3.622   1.922  0.00  0.00     0.280 HD
ENDBRANCH  23  24
ENDBRANCH  10  23
TORSDOF 5
