REMARK  6 active torsions:
REMARK  status: ('A' for Active; 'I' for Inactive)
REMARK    1  A    between atoms: C3_3  and  C19_26 
REMARK    2  A    between atoms: C4_4  and  C5_8 
REMARK    3  A    between atoms: C8_11  and  O2_15 
REMARK    4  A    between atoms: O2_15  and  C11_16 
REMARK    5  A    between atoms: C11_16  and  C12_17 
REMARK    6  A    between atoms: C12_17  and  N3_18 
ROOT
ATOM      1  C5  <0> d   1      -0.153  -3.232   1.659  0.00  0.00     0.032 A 
ATOM      2  C6  <0> d   1      -0.258  -2.998   3.029  0.00  0.00     0.019 A 
ATOM      3  C7  <0> d   1      -0.345  -4.060   3.905  0.00  0.00     0.038 A 
ATOM      4  C8  <0> d   1      -0.330  -5.364   3.425  0.00  0.00     0.071 A 
ATOM      5  C9  <0> d   1      -0.226  -5.605   2.064  0.00  0.00     0.077 A 
ATOM      6  C10 <0> d   1      -0.143  -4.545   1.177  0.00  0.00     0.122 A 
ATOM      7  O1  <0> d   1      -0.047  -4.780  -0.158  0.00  0.00    -0.191 OA
ENDROOT
BRANCH   1   8
ATOM      8  C4  <0> d   1      -0.059  -2.093   0.715  0.00  0.00     0.103 A 
ATOM      9  C3  <0> d   1       0.796  -0.970   0.845  0.00  0.00     0.029 A 
ATOM     10  C2  <0> d   1       0.574  -0.160  -0.229  0.00  0.00     0.037 A 
ATOM     11  C1  <0> d   1       1.262   1.151  -0.509  0.00  0.00     0.070 C 
ATOM     12  N2  <0> d   1      -0.376  -0.738  -0.993  0.00  0.00    -0.281 N 
ATOM     13  N1  <0> d   1      -0.754  -1.945  -0.392  0.00  0.00    -0.173 NA
ATOM     14  H1  <0> d   1      -0.734  -0.380  -1.820  0.00  0.00     0.189 HD
BRANCH   9  15
ATOM     15  C19 <0> d   1       1.757  -0.721   1.947  0.00  0.00    -0.021 A 
ATOM     16  C24 <0> d   1       1.551   0.339   2.828  0.00  0.00     0.014 A 
ATOM     17  C23 <0> d   1       2.446   0.564   3.855  0.00  0.00     0.024 A 
ATOM     18  C22 <0> d   1       3.551  -0.256   4.004  0.00  0.00     0.034 A 
ATOM     19  C21 <0> d   1       3.763  -1.307   3.128  0.00  0.00     0.024 A 
ATOM     20 Cl1  <0> d   1       4.676   0.035   5.294  0.00  0.00    -0.084 Cl
ATOM     21  C20 <0> d   1       2.872  -1.543   2.102  0.00  0.00     0.014 A 
ENDBRANCH   9  15
ENDBRANCH   1   8
BRANCH   4  22
ATOM     22  O2  <0> d   1      -0.416  -6.405   4.294  0.00  0.00    -0.349 OA
BRANCH  22  23
ATOM     23  C11 <0> d   1      -0.394  -7.720   3.734  0.00  0.00     0.206 C 
BRANCH  23  24
ATOM     24  C12 <0> d   1      -0.501  -8.754   4.856  0.00  0.00     0.299 C 
BRANCH  24  25
ATOM     25  N3  <0> d   1      -1.810  -8.633   5.512  0.00  0.00     0.095 N 
ATOM     26  C16 <0> d   1      -1.861  -9.440   6.739  0.00  0.00     0.303 C 
ATOM     27  C15 <0> d   1      -3.217  -9.238   7.420  0.00  0.00     0.146 C 
ATOM     28  O3  <0> d   1      -4.261  -9.579   6.503  0.00  0.00    -0.378 OA
ATOM     29  C17 <0> d   1      -3.309 -10.136   8.655  0.00  0.00     0.041 C 
ATOM     30  C14 <0> d   1      -4.241  -8.811   5.297  0.00  0.00     0.146 C 
ATOM     31  C13 <0> d   1      -2.895  -9.009   4.595  0.00  0.00     0.303 C 
ATOM     32  C18 <0> d   1      -5.371  -9.275   4.376  0.00  0.00     0.041 C 
ENDBRANCH  24  25
ENDBRANCH  23  24
ENDBRANCH  22  23
ENDBRANCH   4  22
TORSDOF 6
