REMARK  4 active torsions:
REMARK  status: ('A' for Active; 'I' for Inactive)
REMARK    1  A    between atoms: C6_6  and  C7_7 
REMARK    2  A    between atoms: C9_12  and  C10_13 
REMARK    3  A    between atoms: C13_16  and  O2_20 
REMARK    4  A    between atoms: C15_18  and  O1_19 
ROOT
ATOM      1  C7  <0> d   1      -1.224  -0.854   0.077  0.00  0.00     0.022 A 
ATOM      2  C8  <0> d   1      -2.285  -0.688   0.985  0.00  0.00     0.153 A 
ATOM      3  N1  <0> d   1      -3.291  -1.419   0.586  0.00  0.00    -0.186 NA
ATOM      4  N2  <0> d   1      -2.934  -2.088  -0.591  0.00  0.00    -0.277 N 
ATOM      5  H1  <0> d   1      -3.498  -2.695  -1.095  0.00  0.00     0.189 HD
ATOM      6  C9  <0> d   1      -1.656  -1.734  -0.907  0.00  0.00     0.075 A 
ENDROOT
BRANCH   6   7
ATOM      7  C10 <0> d   1      -0.879  -2.199  -2.073  0.00  0.00     0.026 A 
ATOM      8  C15 <0> d   1      -0.518  -1.297  -3.083  0.00  0.00     0.081 A 
ATOM      9  C14 <0> d   1       0.215  -1.740  -4.170  0.00  0.00     0.074 A 
ATOM     10  C13 <0> d   1       0.581  -3.074  -4.264  0.00  0.00     0.068 A 
ATOM     11  C12 <0> d   1       0.219  -3.971  -3.266  0.00  0.00     0.037 A 
ATOM     12  C11 <0> d   1      -0.506  -3.540  -2.176  0.00  0.00     0.019 A 
BRANCH   8  13
ATOM     13  O1  <0> d   1      -0.882   0.008  -2.992  0.00  0.00    -0.360 OA
ATOM     14  H10 <0> d   1      -0.237   0.566  -2.537  0.00  0.00     0.217 HD
ENDBRANCH   8  13
BRANCH  10  15
ATOM     15  O2  <0> d   1       1.296  -3.506  -5.335  0.00  0.00    -0.361 OA
ATOM     16  H11 <0> d   1       0.752  -3.807  -6.076  0.00  0.00     0.217 HD
ENDBRANCH  10  15
ENDBRANCH   6   7
BRANCH   1  17
ATOM     17  C6  <0> d   1       0.108  -0.206   0.153  0.00  0.00    -0.022 A 
ATOM     18  C1  <0> d   1       0.206   1.183   0.224  0.00  0.00     0.014 A 
ATOM     19  C2  <0> d   1       1.448   1.781   0.295  0.00  0.00     0.024 A 
ATOM     20  C3  <0> d   1       2.594   1.004   0.295  0.00  0.00     0.034 A 
ATOM     21  C4  <0> d   1       2.502  -0.376   0.225  0.00  0.00     0.024 A 
ATOM     22 Cl1  <0> d   1       4.153   1.763   0.384  0.00  0.00    -0.084 Cl
ATOM     23  C5  <0> d   1       1.265  -0.984   0.154  0.00  0.00     0.014 A 
ENDBRANCH   1  17
TORSDOF 4
