REMARK  9 active torsions:
REMARK  status: ('A' for Active; 'I' for Inactive)
REMARK    1  A    between atoms: O1_2  and  C2_3 
REMARK    2  A    between atoms: C5_6  and  C9_11 
REMARK    3  A    between atoms: C6_7  and  O2_9 
REMARK    4  A    between atoms: C14_16  and  O6_32 
REMARK    5  A    between atoms: C15_17  and  C18_22 
REMARK    6  A    between atoms: C18_22  and  N1_23 
REMARK    7  A    between atoms: N2_26  and  C23_29 
REMARK    8  A    between atoms: C23_29  and  C24_30 
REMARK    9  A    between atoms: C24_30  and  O5_31 
ROOT
ATOM      1  C9  <0> d   1       1.093   3.394   0.087  0.00  0.00     0.053 A 
ATOM      2  C10 <0> d   1       0.037   2.524   0.051  0.00  0.00     0.032 A 
ATOM      3  C11 <0> d   1       0.299   1.130   0.011  0.00  0.00    -0.000 A 
ATOM      4  C12 <0> d   1      -0.762   0.214  -0.027  0.00  0.00     0.017 A 
ATOM      5  C13 <0> d   1      -0.505  -1.125  -0.066  0.00  0.00     0.038 A 
ATOM      6  C14 <0> d   1       0.808  -1.591  -0.068  0.00  0.00     0.076 A 
ATOM      7  C15 <0> d   1       1.869  -0.702  -0.030  0.00  0.00     0.038 A 
ATOM      8  C16 <0> d   1       1.627   0.664   0.010  0.00  0.00     0.100 A 
ATOM      9  O3  <0> d   1       2.662   1.531   0.046  0.00  0.00    -0.273 OA
ATOM     10  C17 <0> d   1       2.457   2.859   0.084  0.00  0.00     0.299 A 
ATOM     11  O4  <0> d   1       3.408   3.619   0.115  0.00  0.00    -0.259 OA
ENDROOT
BRANCH   7  12
ATOM     12  C18 <0> d   1       3.285  -1.217  -0.034  0.00  0.00     0.317 C 
BRANCH  12  13
ATOM     13  N1  <0> d   1       3.758  -1.341  -1.419  0.00  0.00     0.096 N 
ATOM     14  C22 <0> d   1       5.202  -1.611  -1.460  0.00  0.00     0.303 C 
ATOM     15  C21 <0> d   1       5.669  -1.654  -2.917  0.00  0.00     0.302 C 
ATOM     16  N2  <0> d   1       4.921  -2.693  -3.638  0.00  0.00     0.093 N 
ATOM     17  C20 <0> d   1       3.477  -2.423  -3.597  0.00  0.00     0.302 C 
ATOM     18  C19 <0> d   1       3.010  -2.380  -2.140  0.00  0.00     0.303 C 
BRANCH  16  19
ATOM     19  C23 <0> d   1       5.394  -2.817  -5.023  0.00  0.00     0.298 C 
BRANCH  19  20
ATOM     20  C24 <0> d   1       6.733  -3.558  -5.040  0.00  0.00     0.194 C 
BRANCH  20  21
ATOM     21  O5  <0> d   1       6.544  -4.896  -4.577  0.00  0.00    -0.399 OA
ATOM     22  H27 <0> d   1       7.400  -5.584  -4.519  0.00  0.00     0.209 HD
ENDBRANCH  20  21
ENDBRANCH  19  20
ENDBRANCH  16  19
ENDBRANCH  12  13
ENDBRANCH   7  12
BRANCH   6  23
ATOM     23  O6  <0> d   1       1.049  -2.927  -0.107  0.00  0.00    -0.360 OA
ATOM     24  H28 <0> d   1       2.084  -3.299  -0.110  0.00  0.00     0.217 HD
ENDBRANCH   6  23
BRANCH   1  25
ATOM     25  C5  <0> d   1       0.860   4.857   0.130  0.00  0.00     0.014 A 
ATOM     26  C4  <0> d   1       0.232   5.433   1.233  0.00  0.00     0.018 A 
ATOM     27  C3  <0> d   1       0.021   6.795   1.272  0.00  0.00     0.038 A 
ATOM     28  C2  <0> d   1       0.424   7.595   0.210  0.00  0.00     0.070 A 
ATOM     29  C7  <0> d   1       1.044   7.029  -0.894  0.00  0.00     0.074 A 
ATOM     30  C6  <0> d   1       1.265   5.663  -0.940  0.00  0.00     0.082 A 
BRANCH  28  31
ATOM     31  O1  <0> d   1       0.208   8.936   0.253  0.00  0.00    -0.356 OA
ATOM     32  C1  <0> d   1      -0.436   9.453   1.419  0.00  0.00     0.210 C 
ENDBRANCH  28  31
BRANCH  30  33
ATOM     33  O2  <0> d   1       1.873   5.108  -2.020  0.00  0.00    -0.355 OA
ATOM     34  C8  <0> d   1       2.259   5.992  -3.074  0.00  0.00     0.210 C 
ENDBRANCH  30  33
ENDBRANCH   1  25
TORSDOF 9
