REMARK  6 active torsions:
REMARK  status: ('A' for Active; 'I' for Inactive)
REMARK    1  A    between atoms: C5_5  and  C7_7 
REMARK    2  A    between atoms: C14_15  and  C16_18 
REMARK    3  A    between atoms: C16_18  and  N1_19 
REMARK    4  A    between atoms: N2_22  and  C21_25 
REMARK    5  A    between atoms: C21_25  and  C22_26 
REMARK    6  A    between atoms: C22_26  and  O3_27 
ROOT
ATOM      1  C7  <0> d   1       4.283   3.939   8.307  0.00  0.00     0.056 C 
ATOM      2  C8  <0> d   1       3.859   4.598   7.200  0.00  0.00     0.128 A 
ATOM      3  C9  <0> d   1       3.513   6.025   7.117  0.00  0.00     0.218 A 
ATOM      4  O1  <0> d   1       3.545   6.854   8.009  0.00  0.00    -0.284 OA
ATOM      5  C10 <0> d   1       3.118   6.228   5.711  0.00  0.00     0.051 A 
ATOM      6  C11 <0> d   1       2.685   7.344   4.993  0.00  0.00     0.021 A 
ATOM      7  C12 <0> d   1       2.383   7.224   3.666  0.00  0.00     0.041 A 
ATOM      8  C13 <0> d   1       2.512   5.993   3.027  0.00  0.00     0.118 A 
ATOM      9  C14 <0> d   1       2.934   4.876   3.729  0.00  0.00     0.039 A 
ATOM     10  C15 <0> d   1       3.245   4.980   5.080  0.00  0.00     0.101 A 
ATOM     11  O2  <0> d   1       3.676   4.061   5.970  0.00  0.00    -0.305 OA
ATOM     12  O4  <0> d   1       2.215   5.886   1.707  0.00  0.00    -0.191 OA
ENDROOT
BRANCH   9  13
ATOM     13  C16 <0> d   1       3.062   3.549   3.027  0.00  0.00     0.279 C 
BRANCH  13  14
ATOM     14  N1  <0> d   1       1.791   2.819   3.124  0.00  0.00    -0.064 N 
ATOM     15  C20 <0> d   1       1.944   1.432   2.663  0.00  0.00     0.265 C 
ATOM     16  C19 <0> d   1       0.622   0.685   2.854  0.00  0.00     0.300 C 
ATOM     17  N2  <0> d   1      -0.439   1.372   2.105  0.00  0.00     0.093 N 
ATOM     18  C18 <0> d   1      -0.592   2.759   2.566  0.00  0.00     0.300 C 
ATOM     19  C17 <0> d   1       0.730   3.506   2.375  0.00  0.00     0.265 C 
ATOM     20  H23 <0> d   1       1.497   2.794   4.184  0.00  0.00     0.280 HD
BRANCH  17  21
ATOM     21  C21 <0> d   1      -1.710   0.642   2.202  0.00  0.00     0.298 C 
BRANCH  21  22
ATOM     22  C22 <0> d   1      -2.646   1.095   1.079  0.00  0.00     0.194 C 
BRANCH  22  23
ATOM     23  O3  <0> d   1      -2.099   0.707  -0.182  0.00  0.00    -0.399 OA
ATOM     24  H22 <0> d   1      -2.635   0.948  -1.112  0.00  0.00     0.209 HD
ENDBRANCH  22  23
ENDBRANCH  21  22
ENDBRANCH  17  21
ENDBRANCH  13  14
ENDBRANCH   9  13
BRANCH   1  25
ATOM     25  C5  <0> d   1       4.719   2.540   8.207  0.00  0.00     0.005 A 
ATOM     26  C4  <0> d   1       4.829   1.751   9.361  0.00  0.00     0.126 A 
ATOM     27  C3  <0> d   1       5.236   0.435   9.256  0.00  0.00     0.043 A 
ATOM     28  F1  <0> d   1       4.535   2.276  10.571  0.00  0.00    -0.205 F 
ATOM     29  C2  <0> d   1       5.543  -0.101   8.019  0.00  0.00     0.003 A 
ATOM     30  C1  <0> d   1       5.441   0.674   6.875  0.00  0.00     0.001 A 
ATOM     31  C6  <0> d   1       5.033   1.987   6.960  0.00  0.00     0.014 A 
ENDBRANCH   1  25
TORSDOF 6
