REMARK  5 active torsions:
REMARK  status: ('A' for Active; 'I' for Inactive)
REMARK    1  A    between atoms: N2_5  and  C6_8 
REMARK    2  A    between atoms: C6_8  and  C7_9 
REMARK    3  A    between atoms: C8_10  and  O4_29 
REMARK    4  A    between atoms: C14_17  and  C15_18 
REMARK    5  A    between atoms: C20_23  and  O2_24 
ROOT
ATOM      1  C7  <0> d   1       0.058   0.144  -1.055  0.00  0.00     0.038 A 
ATOM      2  C8  <0> d   1       1.275  -0.497  -1.223  0.00  0.00     0.076 A 
ATOM      3  C9  <0> d   1       2.470   0.202  -1.071  0.00  0.00     0.038 A 
ATOM      4  C10 <0> d   1       2.452   1.530  -0.753  0.00  0.00     0.021 A 
ATOM      5  C11 <0> d   1       1.234   2.188  -0.581  0.00  0.00     0.051 A 
ATOM      6  C12 <0> d   1       0.022   1.494  -0.732  0.00  0.00     0.101 A 
ATOM      7  O1  <0> d   1      -1.013   2.336  -0.524  0.00  0.00    -0.305 OA
ATOM      8  C13 <0> d   1      -0.592   3.588  -0.225  0.00  0.00     0.128 A 
ATOM      9  C14 <0> d   1      -1.384   4.659   0.040  0.00  0.00     0.055 C 
ATOM     10  C22 <0> d   1       0.877   3.579  -0.245  0.00  0.00     0.218 A 
ATOM     11  O3  <0> d   1       1.632   4.511  -0.031  0.00  0.00    -0.284 OA
ENDROOT
BRANCH   9  12
ATOM     12  C15 <0> d   1      -2.843   4.534  -0.058  0.00  0.00     0.001 A 
ATOM     13  C20 <0> d   1      -3.647   5.683  -0.144  0.00  0.00     0.078 A 
ATOM     14  C19 <0> d   1      -5.023   5.553  -0.241  0.00  0.00     0.039 A 
ATOM     15  C18 <0> d   1      -5.602   4.299  -0.241  0.00  0.00     0.022 A 
ATOM     16  C17 <0> d   1      -4.815   3.161  -0.150  0.00  0.00     0.011 A 
ATOM     17  C16 <0> d   1      -3.444   3.269  -0.059  0.00  0.00     0.033 A 
ATOM     18 Br1  <0> d   1      -5.626   1.453  -0.151  0.00  0.00    -0.051 Br
BRANCH  13  19
ATOM     19  O2  <0> d   1      -3.077   6.915  -0.139  0.00  0.00    -0.355 OA
ATOM     20  C21 <0> d   1      -3.957   8.037  -0.230  0.00  0.00     0.210 C 
ENDBRANCH  13  19
ENDBRANCH   9  12
BRANCH   1  21
ATOM     21  C6  <0> d   1      -1.227  -0.625  -1.224  0.00  0.00     0.317 C 
BRANCH  21  22
ATOM     22  N2  <0> d   1      -1.661  -0.553  -2.625  0.00  0.00     0.096 N 
ATOM     23  C3  <0> d   1      -2.774  -1.479  -2.880  0.00  0.00     0.300 C 
ATOM     24  C2  <0> d   1      -3.143  -1.432  -4.365  0.00  0.00     0.264 C 
ATOM     25  N1  <0> d   1      -3.510  -0.057  -4.733  0.00  0.00    -0.072 N 
ATOM     26  C1  <0> d   1      -3.944   0.015  -6.134  0.00  0.00     0.269 C 
ATOM     27  C5  <0> d   1      -2.398   0.869  -4.477  0.00  0.00     0.264 C 
ATOM     28  H24 <0> d   1      -4.358   0.248  -4.102  0.00  0.00     0.279 HD
ATOM     29  C4  <0> d   1      -2.029   0.822  -2.993  0.00  0.00     0.300 C 
ENDBRANCH  21  22
ENDBRANCH   1  21
BRANCH   2  30
ATOM     30  O4  <0> d   1       1.303  -1.817  -1.539  0.00  0.00    -0.360 OA
ATOM     31  H23 <0> d   1       2.267  -2.330  -1.673  0.00  0.00     0.217 HD
ENDBRANCH   2  30
TORSDOF 5
