REMARK  3 active torsions:
REMARK  status: ('A' for Active; 'I' for Inactive)
REMARK    1  A    between atoms: C2_2  and  N1_3 
REMARK    2  A    between atoms: C4_5  and  C12_14 
REMARK    3  A    between atoms: C9_10  and  O1_12 
ROOT
ATOM      1  N1  <0> d   1      -5.919   0.133   2.078  0.00  0.00    -0.356 N 
ATOM      2  C3  <0> d   1      -6.160   0.755   3.257  0.00  0.00     0.103 A 
ATOM      3  C4  <0> d   1      -5.025   1.424   3.664  0.00  0.00    -0.005 A 
ATOM      4  C5  <0> d   1      -4.005   1.178   2.627  0.00  0.00     0.005 A 
ATOM      5  C6  <0> d   1      -4.622   0.366   1.663  0.00  0.00     0.045 A 
ATOM      6  C7  <0> d   1      -3.898  -0.040   0.546  0.00  0.00     0.033 A 
ATOM      7  C8  <0> d   1      -2.589   0.362   0.390  0.00  0.00     0.039 A 
ATOM      8  C9  <0> d   1      -1.976   1.163   1.348  0.00  0.00     0.069 A 
ATOM      9  C10 <0> d   1      -2.680   1.574   2.465  0.00  0.00     0.051 A 
ENDROOT
BRANCH   3  10
ATOM     10  C12 <0> d   1      -4.865   2.219   4.881  0.00  0.00     0.055 C 
ATOM     11  C13 <0> d   1      -5.907   2.354   5.748  0.00  0.00     0.128 A 
ATOM     12  O3  <0> d   1      -7.138   1.811   5.597  0.00  0.00    -0.306 OA
ATOM     13  C14 <0> d   1      -5.886   3.094   6.960  0.00  0.00     0.218 A 
ATOM     14  C20 <0> d   1      -7.947   2.127   6.631  0.00  0.00     0.093 A 
ATOM     15  C15 <0> d   1      -7.235   2.936   7.532  0.00  0.00     0.051 A 
ATOM     16  C19 <0> d   1      -9.268   1.804   6.913  0.00  0.00     0.078 A 
ATOM     17  C16 <0> d   1      -7.848   3.408   8.692  0.00  0.00     0.021 A 
ATOM     18  C17 <0> d   1      -9.148   3.082   8.956  0.00  0.00     0.041 A 
ATOM     19  C18 <0> d   1      -9.863   2.280   8.070  0.00  0.00     0.110 A 
ATOM     20  O4  <0> d   1     -11.155   1.962   8.341  0.00  0.00    -0.192 OA
ATOM     21  O2  <0> d   1      -4.952   3.724   7.428  0.00  0.00    -0.284 OA
ENDBRANCH   3  10
BRANCH   1  22
ATOM     22  C2  <0> d   1      -6.898  -0.675   1.345  0.00  0.00     0.124 C 
ATOM     23  C1  <0> d   1      -6.716  -2.150   1.708  0.00  0.00     0.027 C 
ENDBRANCH   1  22
BRANCH   8  24
ATOM     24  O1  <0> d   1      -0.682   1.547   1.184  0.00  0.00    -0.356 OA
ATOM     25  C11 <0> d   1      -0.013   1.086   0.008  0.00  0.00     0.210 C 
ENDBRANCH   8  24
TORSDOF 3
