REMARK  5 active torsions:
REMARK  status: ('A' for Active; 'I' for Inactive)
REMARK    1  A    between atoms: O1_2  and  C2_3 
REMARK    2  A    between atoms: C5_6  and  C9_11 
REMARK    3  A    between atoms: C7_8  and  O2_9 
REMARK    4  A    between atoms: C11_13  and  C12_17 
REMARK    5  A    between atoms: C17_22  and  O3_23 
ROOT
ATOM      1  C9  <0> d   1       2.579  -2.537   4.297  0.00  0.00     0.062 A 
ATOM      2  C10 <0> d   1       3.181  -1.917   5.353  0.00  0.00     0.066 A 
ATOM      3  C11 <0> d   1       3.700  -2.913   6.197  0.00  0.00     0.092 A 
ATOM      4  N1  <0> d   1       3.423  -4.088   5.669  0.00  0.00    -0.174 NA
ATOM      5  N2  <0> d   1       2.714  -3.882   4.479  0.00  0.00    -0.277 N 
ATOM      6  H1  <0> d   1       2.381  -4.574   3.887  0.00  0.00     0.189 HD
ENDROOT
BRANCH   1   7
ATOM      7  C5  <0> d   1       1.899  -1.871   3.164  0.00  0.00    -0.005 A 
ATOM      8  C4  <0> d   1       1.836  -0.479   3.107  0.00  0.00     0.017 A 
ATOM      9  C3  <0> d   1       1.202   0.140   2.050  0.00  0.00     0.040 A 
ATOM     10  C2  <0> d   1       0.626  -0.619   1.042  0.00  0.00     0.101 A 
ATOM     11  C7  <0> d   1       0.681  -2.009   1.096  0.00  0.00     0.102 A 
ATOM     12  C6  <0> d   1       1.320  -2.635   2.151  0.00  0.00     0.053 A 
BRANCH  10  13
ATOM     13  O1  <0> d   1       0.002  -0.004   0.002  0.00  0.00    -0.353 OA
ATOM     14  C1  <0> d   1      -0.017   1.425   0.010  0.00  0.00     0.210 C 
ENDBRANCH  10  13
BRANCH  11  15
ATOM     15  O2  <0> d   1       0.111  -2.751   0.109  0.00  0.00    -0.353 OA
ATOM     16  C8  <0> d   1       0.206  -4.172   0.228  0.00  0.00     0.210 C 
ENDBRANCH  11  15
ENDBRANCH   1   7
BRANCH   3  17
ATOM     17  C12 <0> d   1       4.437  -2.682   7.464  0.00  0.00     0.030 A 
ATOM     18  C17 <0> d   1       4.903  -3.766   8.213  0.00  0.00     0.078 A 
ATOM     19  C16 <0> d   1       5.594  -3.543   9.392  0.00  0.00     0.040 A 
ATOM     20  C15 <0> d   1       5.812  -2.251   9.834  0.00  0.00     0.045 A 
ATOM     21  C14 <0> d   1       5.346  -1.174   9.097  0.00  0.00     0.117 A 
ATOM     22  C13 <0> d   1       4.660  -1.384   7.916  0.00  0.00     0.059 A 
ATOM     23  F1  <0> d   1       5.564   0.086   9.535  0.00  0.00    -0.206 F 
BRANCH  18  24
ATOM     24  O3  <0> d   1       4.684  -5.036   7.781  0.00  0.00    -0.360 OA
ATOM     25  H15 <0> d   1       5.383  -5.384   7.210  0.00  0.00     0.217 HD
ENDBRANCH  18  24
ENDBRANCH   3  17
TORSDOF 5
