REMARK  8 active torsions:
REMARK  status: ('A' for Active; 'I' for Inactive)
REMARK    1  A    between atoms: O1_2  and  C2_3 
REMARK    2  A    between atoms: C5_6  and  C9_11 
REMARK    3  A    between atoms: C6_7  and  O2_9 
REMARK    4  A    between atoms: C16_19  and  C18_22 
REMARK    5  A    between atoms: C18_22  and  N1_23 
REMARK    6  A    between atoms: N2_26  and  C23_29 
REMARK    7  A    between atoms: C23_29  and  C24_30 
REMARK    8  A    between atoms: C24_30  and  O5_31 
ROOT
ATOM      1  C9  <0> d   1      -4.959  -2.588   0.037  0.00  0.00     0.055 C 
ATOM      2  C10 <0> d   1      -6.101  -1.858   0.150  0.00  0.00     0.128 A 
ATOM      3  C11 <0> d   1      -7.462  -2.392   0.283  0.00  0.00     0.218 A 
ATOM      4  O3  <0> d   1      -7.804  -3.562   0.315  0.00  0.00    -0.284 OA
ATOM      5  C12 <0> d   1      -8.322  -1.198   0.369  0.00  0.00     0.051 A 
ATOM      6  C13 <0> d   1      -9.699  -1.021   0.504  0.00  0.00     0.021 A 
ATOM      7  C14 <0> d   1     -10.222   0.240   0.557  0.00  0.00     0.041 A 
ATOM      8  C15 <0> d   1      -9.383   1.349   0.476  0.00  0.00     0.118 A 
ATOM      9  C16 <0> d   1      -8.014   1.189   0.341  0.00  0.00     0.039 A 
ATOM     10  C17 <0> d   1      -7.466  -0.087   0.286  0.00  0.00     0.101 A 
ATOM     11  O4  <0> d   1      -6.188  -0.506   0.165  0.00  0.00    -0.305 OA
ATOM     12  O6  <0> d   1      -9.912   2.598   0.529  0.00  0.00    -0.191 OA
ENDROOT
BRANCH   9  13
ATOM     13  C18 <0> d   1      -7.119   2.398   0.254  0.00  0.00     0.279 C 
BRANCH  13  14
ATOM     14  N1  <0> d   1      -6.692   2.790   1.603  0.00  0.00    -0.064 N 
ATOM     15  C22 <0> d   1      -5.726   3.892   1.510  0.00  0.00     0.265 C 
ATOM     16  C21 <0> d   1      -5.267   4.288   2.915  0.00  0.00     0.300 C 
ATOM     17  N2  <0> d   1      -6.432   4.701   3.710  0.00  0.00     0.093 N 
ATOM     18  C20 <0> d   1      -7.420   3.616   3.791  0.00  0.00     0.300 C 
ATOM     19  C19 <0> d   1      -7.861   3.225   2.379  0.00  0.00     0.265 C 
ATOM     20  H28 <0> d   1      -6.260   2.002   2.062  0.00  0.00     0.280 HD
BRANCH  17  21
ATOM     21  C23 <0> d   1      -6.025   5.144   5.050  0.00  0.00     0.298 C 
BRANCH  21  22
ATOM     22  C24 <0> d   1      -5.198   6.426   4.934  0.00  0.00     0.194 C 
BRANCH  22  23
ATOM     23  O5  <0> d   1      -6.018   7.478   4.422  0.00  0.00    -0.399 OA
ATOM     24  H27 <0> d   1      -5.558   8.322   4.322  0.00  0.00     0.209 HD
ENDBRANCH  22  23
ENDBRANCH  21  22
ENDBRANCH  17  21
ENDBRANCH  13  14
ENDBRANCH   9  13
BRANCH   1  25
ATOM     25  C5  <0> d   1      -3.656  -1.919   0.073  0.00  0.00     0.000 A 
ATOM     26  C4  <0> d   1      -3.568  -0.536  -0.135  0.00  0.00     0.017 A 
ATOM     27  C3  <0> d   1      -2.352   0.084  -0.101  0.00  0.00     0.038 A 
ATOM     28  C2  <0> d   1      -1.194  -0.649   0.141  0.00  0.00     0.070 A 
ATOM     29  C7  <0> d   1      -1.262  -2.020   0.344  0.00  0.00     0.074 A 
ATOM     30  C6  <0> d   1      -2.487  -2.663   0.317  0.00  0.00     0.081 A 
BRANCH  28  31
ATOM     31  O1  <0> d   1       0.009  -0.020   0.174  0.00  0.00    -0.356 OA
ATOM     32  C1  <0> d   1       0.009   1.392  -0.043  0.00  0.00     0.210 C 
ENDBRANCH  28  31
BRANCH  30  33
ATOM     33  O2  <0> d   1      -2.560  -4.002   0.520  0.00  0.00    -0.355 OA
ATOM     34  C8  <0> d   1      -1.331  -4.690   0.762  0.00  0.00     0.210 C 
ENDBRANCH  30  33
ENDBRANCH   1  25
TORSDOF 8
