REMARK  6 active torsions:
REMARK  status: ('A' for Active; 'I' for Inactive)
REMARK    1  A    between atoms: C5_5  and  C19_23 
REMARK    2  A    between atoms: C10_11  and  C11_12 
REMARK    3  A    between atoms: C15_16  and  O3_20 
REMARK    4  A    between atoms: C16_17  and  O2_18 
REMARK    5  A    between atoms: C19_23  and  N1_24 
REMARK    6  A    between atoms: N2_27  and  C24_30 
ROOT
ATOM      1  C1  <0> d   1      -0.650   1.599   0.132  0.00  0.00     0.049 C 
ATOM      2  C2  <0> d   1      -0.758   0.096   0.112  0.00  0.00    -0.042 A 
ATOM      3  C3  <0> d   1      -1.038  -0.555  -1.057  0.00  0.00     0.048 A 
ATOM      4  C4  <0> d   1      -1.138  -1.943  -1.078  0.00  0.00     0.118 A 
ATOM      5  C5  <0> d   1      -0.956  -2.680   0.081  0.00  0.00     0.039 A 
ATOM      6  C6  <0> d   1      -0.671  -2.034   1.278  0.00  0.00     0.102 A 
ATOM      7  C7  <0> d   1      -0.567  -0.634   1.285  0.00  0.00     0.057 A 
ATOM      8  C8  <0> d   1      -0.255  -0.248   2.673  0.00  0.00     0.219 A 
ATOM      9  O1  <0> d   1      -0.086   0.875   3.115  0.00  0.00    -0.284 OA
ATOM     10  C9  <0> d   1      -0.192  -1.521   3.405  0.00  0.00     0.128 A 
ATOM     11  C10 <0> d   1       0.070  -1.674   4.728  0.00  0.00     0.055 C 
ATOM     12  O4  <0> d   1      -0.455  -2.514   2.522  0.00  0.00    -0.305 OA
ATOM     13  O5  <0> d   1      -1.416  -2.580  -2.244  0.00  0.00    -0.191 OA
ENDROOT
BRANCH   5  14
ATOM     14  C19 <0> d   1      -1.068  -4.183   0.044  0.00  0.00     0.279 C 
BRANCH  14  15
ATOM     15  N1  <0> d   1       0.250  -4.765  -0.240  0.00  0.00    -0.064 N 
ATOM     16  C23 <0> d   1       0.165  -6.229  -0.158  0.00  0.00     0.255 C 
ATOM     17  C22 <0> d   1       1.562  -6.832  -0.341  0.00  0.00     0.150 C 
ATOM     18  N2  <0> d   1       2.126  -6.326  -1.602  0.00  0.00    -0.375 N 
ATOM     19  C21 <0> d   1       2.103  -4.875  -1.839  0.00  0.00     0.150 C 
ATOM     20  C20 <0> d   1       0.681  -4.364  -1.586  0.00  0.00     0.255 C 
ATOM     21  H29 <0> d   1       0.918  -4.430   0.438  0.00  0.00     0.280 HD
BRANCH  18  22
ATOM     22  C24 <0> d   1       2.670  -7.201  -2.548  0.00  0.00     0.069 A 
ATOM     23  C29 <0> d   1       1.862  -7.740  -3.544  0.00  0.00     0.142 A 
ATOM     24  C28 <0> d   1       2.405  -8.600  -4.481  0.00  0.00     0.044 A 
ATOM     25  F1  <0> d   1       0.551  -7.420  -3.599  0.00  0.00    -0.204 F 
ATOM     26  C27 <0> d   1       3.745  -8.933  -4.421  0.00  0.00     0.003 A 
ATOM     27  C26 <0> d   1       4.549  -8.402  -3.429  0.00  0.00     0.002 A 
ATOM     28  C25 <0> d   1       4.015  -7.538  -2.493  0.00  0.00     0.032 A 
ENDBRANCH  18  22
ENDBRANCH  14  15
ENDBRANCH   5  14
BRANCH  11  29
ATOM     29  C11 <0> d   1      -0.017  -3.002   5.345  0.00  0.00     0.003 A 
ATOM     30  C16 <0> d   1      -0.102  -3.129   6.740  0.00  0.00     0.111 A 
ATOM     31  C15 <0> d   1      -0.190  -4.393   7.312  0.00  0.00     0.102 A 
ATOM     32  C14 <0> d   1      -0.181  -5.520   6.506  0.00  0.00     0.040 A 
ATOM     33  C13 <0> d   1      -0.092  -5.397   5.129  0.00  0.00     0.004 A 
ATOM     34  C12 <0> d   1      -0.010  -4.153   4.545  0.00  0.00     0.014 A 
BRANCH  30  35
ATOM     35  O2  <0> d   1      -0.104  -2.022   7.527  0.00  0.00    -0.352 OA
ATOM     36  C17 <0> d   1      -1.376  -1.444   7.830  0.00  0.00     0.210 C 
ENDBRANCH  30  35
BRANCH  31  37
ATOM     37  O3  <0> d   1      -0.279  -4.524   8.663  0.00  0.00    -0.353 OA
ATOM     38  C18 <0> d   1      -0.359  -5.853   9.182  0.00  0.00     0.210 C 
ENDBRANCH  31  37
ENDBRANCH  11  29
TORSDOF 6
