REMARK  7 active torsions:
REMARK  status: ('A' for Active; 'I' for Inactive)
REMARK    1  A    between atoms: C2_2  and  O1_3 
REMARK    2  A    between atoms: O1_3  and  C3_4 
REMARK    3  A    between atoms: C6_7  and  C9_11 
REMARK    4  A    between atoms: C7_8  and  O2_10 
REMARK    5  A    between atoms: C10_12  and  O3_17 
REMARK    6  A    between atoms: O3_17  and  C12_18 
REMARK    7  A    between atoms: C17_23  and  O4_24 
ROOT
ATOM      1  C9  <0> d   1       0.865  -6.068   1.894  0.00  0.00     0.125 A 
ATOM      2  C10 <0> d   1       0.558  -7.022   0.899  0.00  0.00     0.124 A 
ATOM      3  C11 <0> d   1       0.959  -8.234   1.350  0.00  0.00     0.149 A 
ATOM      4  N1  <0> d   1       1.500  -8.060   2.585  0.00  0.00    -0.286 N 
ATOM      5  H1  <0> d   1       1.871  -8.758   3.148  0.00  0.00     0.188 HD
ATOM      6  N2  <0> d   1       1.435  -6.697   2.900  0.00  0.00    -0.172 NA
ENDROOT
BRANCH   1   7
ATOM      7  C6  <0> d   1       0.598  -4.612   1.816  0.00  0.00     0.030 A 
ATOM      8  C5  <0> d   1      -0.015  -4.073   0.687  0.00  0.00     0.019 A 
ATOM      9  C4  <0> d   1      -0.264  -2.718   0.617  0.00  0.00     0.038 A 
ATOM     10  C3  <0> d   1       0.096  -1.887   1.671  0.00  0.00     0.071 A 
ATOM     11  C8  <0> d   1       0.711  -2.415   2.796  0.00  0.00     0.074 A 
ATOM     12  C7  <0> d   1       0.959  -3.775   2.877  0.00  0.00     0.081 A 
BRANCH  10  13
ATOM     13  O1  <0> d   1      -0.151  -0.553   1.596  0.00  0.00    -0.351 OA
BRANCH  13  14
ATOM     14  C2  <0> d   1      -0.787  -0.077   0.409  0.00  0.00     0.171 C 
ATOM     15  C1  <0> d   1      -0.981   1.438   0.507  0.00  0.00     0.034 C 
ENDBRANCH  13  14
ENDBRANCH  10  13
BRANCH  12  16
ATOM     16  O2  <0> d   1       1.557  -4.294   3.981  0.00  0.00    -0.360 OA
ATOM     17  H10 <0> d   1       2.522  -4.318   3.931  0.00  0.00     0.217 HD
ENDBRANCH  12  16
ENDBRANCH   1   7
BRANCH   2  18
ATOM     18  O3  <0> d   1      -0.035  -6.767  -0.300  0.00  0.00    -0.304 OA
BRANCH  18  19
ATOM     19  C12 <0> d   1      -0.352  -7.826  -1.092  0.00  0.00     0.109 A 
ATOM     20  C17 <0> d   1      -1.560  -8.494  -0.912  0.00  0.00     0.102 A 
ATOM     21  C16 <0> d   1      -1.881  -9.569  -1.726  0.00  0.00     0.039 A 
ATOM     22  C15 <0> d   1      -0.998  -9.982  -2.706  0.00  0.00     0.003 A 
ATOM     23  C14 <0> d   1       0.204  -9.321  -2.881  0.00  0.00     0.003 A 
ATOM     24  C13 <0> d   1       0.528  -8.245  -2.077  0.00  0.00     0.040 A 
BRANCH  20  25
ATOM     25  O4  <0> d   1      -2.424  -8.091   0.057  0.00  0.00    -0.353 OA
ATOM     26  C18 <0> d   1      -3.644  -8.824   0.184  0.00  0.00     0.210 C 
ENDBRANCH  20  25
ENDBRANCH  18  19
ENDBRANCH   2  18
TORSDOF 7
