REMARK  4 active torsions:
REMARK  status: ('A' for Active; 'I' for Inactive)
REMARK    1  A    between atoms: C4_4  and  C7_7 
REMARK    2  A    between atoms: C15_17  and  C16_18 
REMARK    3  A    between atoms: C16_18  and  N1_19 
REMARK    4  A    between atoms: C21_24  and  C22_25 
ROOT
ATOM      1  C7  <0> d   1      -0.018   1.479   0.010  0.00  0.00     0.048 A 
ATOM      2  C8  <0> d   1      -1.196   2.155   0.019  0.00  0.00     0.159 A 
ATOM      3  O1  <0> d   1      -1.259   3.489   0.032  0.00  0.00    -0.320 OA
ATOM      4  C9  <0> d   1      -0.168   4.281   0.026  0.00  0.00     0.100 A 
ATOM      5  C10 <0> d   1       1.119   3.716   0.011  0.00  0.00     0.050 A 
ATOM      6  C11 <0> d   1       1.239   2.247   0.002  0.00  0.00     0.197 A 
ATOM      7  O2  <0> d   1       2.325   1.694  -0.010  0.00  0.00    -0.286 OA
ATOM      8  C12 <0> d   1       2.249   4.534   0.004  0.00  0.00     0.021 A 
ATOM      9  C13 <0> d   1       2.103   5.892   0.012  0.00  0.00     0.041 A 
ATOM     10  C14 <0> d   1       0.832   6.462   0.026  0.00  0.00     0.118 A 
ATOM     11  C15 <0> d   1      -0.299   5.663   0.033  0.00  0.00     0.039 A 
ATOM     12  O3  <0> d   1       0.700   7.813   0.035  0.00  0.00    -0.191 OA
ENDROOT
BRANCH  11  13
ATOM     13  C16 <0> d   1      -1.669   6.292   0.050  0.00  0.00     0.280 C 
BRANCH  13  14
ATOM     14  N1  <0> d   1      -2.127   6.503  -1.330  0.00  0.00    -0.059 N 
ATOM     15  C21 <0> d   1      -3.341   7.329  -1.361  0.00  0.00     0.223 C 
ATOM     16  C20 <0> d   1      -3.705   7.649  -2.813  0.00  0.00     0.038 C 
ATOM     17  C19 <0> d   1      -3.935   6.341  -3.576  0.00  0.00     0.004 C 
ATOM     18  C18 <0> d   1      -2.673   5.478  -3.487  0.00  0.00     0.028 C 
ATOM     19  C17 <0> d   1      -2.339   5.222  -2.016  0.00  0.00     0.236 C 
ATOM     20  H24 <0> d   1      -1.338   7.046  -1.871  0.00  0.00     0.281 HD
BRANCH  15  21
ATOM     21  C22 <0> d   1      -3.094   8.613  -0.611  0.00  0.00    -0.010 A 
ATOM     22  C26 <0> d   1      -1.882   9.267  -0.725  0.00  0.00     0.125 A 
ATOM     23  N2  <0> d   1      -1.661  10.394  -0.076  0.00  0.00    -0.273 NA
ATOM     24  C25 <0> d   1      -2.573  10.933   0.709  0.00  0.00     0.116 A 
ATOM     25  C24 <0> d   1      -3.806  10.332   0.876  0.00  0.00     0.020 A 
ATOM     26  C23 <0> d   1      -4.078   9.149   0.205  0.00  0.00     0.012 A 
ENDBRANCH  15  21
ENDBRANCH  13  14
ENDBRANCH  11  13
BRANCH   1  27
ATOM     27  C4  <0> d   1       0.002  -0.004   0.002  0.00  0.00    -0.020 A 
ATOM     28  C3  <0> d   1      -0.754  -0.719   0.929  0.00  0.00     0.012 A 
ATOM     29  C2  <0> d   1      -0.732  -2.099   0.916  0.00  0.00     0.001 A 
ATOM     30  C1  <0> d   1       0.039  -2.772  -0.014  0.00  0.00     0.000 A 
ATOM     31  C6  <0> d   1       0.792  -2.068  -0.936  0.00  0.00     0.001 A 
ATOM     32  C5  <0> d   1       0.773  -0.688  -0.936  0.00  0.00     0.012 A 
ENDBRANCH   1  27
TORSDOF 4
