REMARK  3 active torsions:
REMARK  status: ('A' for Active; 'I' for Inactive)
REMARK    1  A    between atoms: O1_2  and  C2_3 
REMARK    2  A    between atoms: C7_8  and  C8_9 
REMARK    3  A    between atoms: C10_11  and  C11_15 
ROOT
ATOM      1  C8  <0> d   1      -0.010  -2.830  -0.014  0.00  0.00     0.065 A 
ATOM      2  C9  <0> d   1       0.224  -3.979   0.685  0.00  0.00     0.066 A 
ATOM      3  C10 <0> d   1       1.528  -4.407   0.384  0.00  0.00     0.092 A 
ATOM      4  N1  <0> d   1       2.059  -3.550  -0.464  0.00  0.00    -0.174 NA
ATOM      5  H1  <0> d   1       1.237  -1.796  -1.330  0.00  0.00     0.189 HD
ATOM      6  N2  <0> d   1       1.114  -2.553  -0.735  0.00  0.00    -0.277 N 
ENDROOT
BRANCH   1   7
ATOM      7  C7  <0> d   1      -1.257  -2.035   0.003  0.00  0.00     0.025 A 
ATOM      8  C2  <0> d   1      -1.200  -0.637   0.010  0.00  0.00     0.080 A 
ATOM      9  C3  <0> d   1      -2.373   0.099   0.019  0.00  0.00     0.037 A 
ATOM     10  C4  <0> d   1      -3.596  -0.546   0.028  0.00  0.00     0.003 A 
ATOM     11  C5  <0> d   1      -3.656  -1.929   0.028  0.00  0.00     0.001 A 
ATOM     12  C6  <0> d   1      -2.496  -2.676   0.018  0.00  0.00     0.016 A 
BRANCH   8  13
ATOM     13  O1  <0> d   1       0.002  -0.004   0.002  0.00  0.00    -0.355 OA
ATOM     14  C1  <0> d   1      -0.017   1.425   0.010  0.00  0.00     0.210 C 
ENDBRANCH   8  13
ENDBRANCH   1   7
BRANCH   3  15
ATOM     15  C11 <0> d   1       2.193  -5.617   0.927  0.00  0.00     0.033 A 
ATOM     16  C16 <0> d   1       3.500  -5.931   0.544  0.00  0.00     0.119 A 
ATOM     17  C15 <0> d   1       4.116  -7.060   1.060  0.00  0.00     0.042 A 
ATOM     18  O2  <0> d   1       4.166  -5.130  -0.328  0.00  0.00    -0.191 OA
ATOM     19  C14 <0> d   1       3.436  -7.878   1.942  0.00  0.00     0.026 A 
ATOM     20  C13 <0> d   1       2.139  -7.573   2.319  0.00  0.00     0.035 A 
ATOM     21  C12 <0> d   1       1.516  -6.447   1.816  0.00  0.00     0.040 A 
ATOM     22 Cl1  <0> d   1       1.294  -8.607   3.428  0.00  0.00    -0.084 Cl
ENDBRANCH   3  15
TORSDOF 3
