REMARK  6 active torsions:
REMARK  status: ('A' for Active; 'I' for Inactive)
REMARK    1  A    between atoms: N1_4  and  C7_9 
REMARK    2  A    between atoms: C7_9  and  C8_10 
REMARK    3  A    between atoms: C8_10  and  O2_11 
REMARK    4  A    between atoms: O2_11  and  C9_12 
REMARK    5  A    between atoms: C12_15  and  C15_19 
REMARK    6  A    between atoms: C16_20  and  C18_25 
ROOT
ATOM      1  C9  <0> d   1      -2.056  -6.099   0.821  0.00  0.00     0.071 A 
ATOM      2  C10 <0> d   1      -2.269  -6.713  -0.407  0.00  0.00     0.038 A 
ATOM      3  C11 <0> d   1      -2.133  -8.080  -0.532  0.00  0.00     0.019 A 
ATOM      4  C12 <0> d   1      -1.781  -8.849   0.576  0.00  0.00     0.032 A 
ATOM      5  C13 <0> d   1      -1.566  -8.230   1.812  0.00  0.00     0.122 A 
ATOM      6  C14 <0> d   1      -1.700  -6.857   1.927  0.00  0.00     0.077 A 
ATOM      7  O3  <0> d   1      -1.223  -8.974   2.895  0.00  0.00    -0.191 OA
ENDROOT
BRANCH   4   8
ATOM      8  C15 <0> d   1      -1.634 -10.318   0.444  0.00  0.00     0.102 A 
ATOM      9  C16 <0> d   1      -2.558 -11.197  -0.176  0.00  0.00     0.022 A 
ATOM     10  C17 <0> d   1      -2.048 -12.458  -0.083  0.00  0.00     0.124 A 
ATOM     11  N2  <0> d   1      -0.866 -12.380   0.562  0.00  0.00    -0.288 N 
ATOM     12  H3  <0> d   1      -0.282 -13.126   0.769  0.00  0.00     0.188 HD
ATOM     13  N3  <0> d   1      -0.622 -11.038   0.877  0.00  0.00    -0.174 NA
BRANCH   9  14
ATOM     14  C18 <0> d   1      -3.844 -10.815  -0.809  0.00  0.00    -0.022 A 
ATOM     15  C23 <0> d   1      -4.112 -11.186  -2.126  0.00  0.00     0.014 A 
ATOM     16  C22 <0> d   1      -5.312 -10.834  -2.708  0.00  0.00     0.020 A 
ATOM     17  C21 <0> d   1      -6.244 -10.102  -1.992  0.00  0.00     0.011 A 
ATOM     18  C20 <0> d   1      -5.979  -9.726  -0.686  0.00  0.00     0.020 A 
ATOM     19 Br1  <0> d   1      -7.883  -9.615  -2.799  0.00  0.00    -0.051 Br
ATOM     20  C19 <0> d   1      -4.785 -10.079  -0.092  0.00  0.00     0.014 A 
ENDBRANCH   9  14
ENDBRANCH   4   8
BRANCH   1  21
ATOM     21  O2  <0> d   1      -2.192  -4.753   0.937  0.00  0.00    -0.349 OA
BRANCH  21  22
ATOM     22  C8  <0> d   1      -2.561  -4.033  -0.241  0.00  0.00     0.206 C 
BRANCH  22  23
ATOM     23  C7  <0> d   1      -2.665  -2.542   0.083  0.00  0.00     0.299 C 
BRANCH  23  24
ATOM     24  N1  <0> d   1      -1.344  -2.033   0.477  0.00  0.00     0.095 N 
ATOM     25  C3  <0> d   1      -0.476  -1.856  -0.696  0.00  0.00     0.303 C 
ATOM     26  C2  <0> d   1       0.905  -1.383  -0.236  0.00  0.00     0.146 C 
ATOM     27  C1  <0> d   1       1.788  -1.121  -1.458  0.00  0.00     0.041 C 
ATOM     28  O1  <0> d   1       0.764  -0.177   0.519  0.00  0.00    -0.378 OA
ATOM     29  C5  <0> d   1      -0.075  -0.313   1.670  0.00  0.00     0.146 C 
ATOM     30  C4  <0> d   1      -1.466  -0.776   1.229  0.00  0.00     0.303 C 
ATOM     31  C6  <0> d   1       0.528  -1.347   2.623  0.00  0.00     0.041 C 
ENDBRANCH  23  24
ENDBRANCH  22  23
ENDBRANCH  21  22
ENDBRANCH   1  21
TORSDOF 6
