REMARK  7 active torsions:
REMARK  status: ('A' for Active; 'I' for Inactive)
REMARK    1  A    between atoms: N2_5  and  C6_8 
REMARK    2  A    between atoms: C6_8  and  C7_9 
REMARK    3  A    between atoms: C8_10  and  O6_32 
REMARK    4  A    between atoms: C14_17  and  C15_18 
REMARK    5  A    between atoms: C17_20  and  O4_28 
REMARK    6  A    between atoms: C18_21  and  O3_26 
REMARK    7  A    between atoms: C20_23  and  O2_24 
ROOT
ATOM      1  C7  <0> d   1       2.204  -5.204   0.818  0.00  0.00     0.038 A 
ATOM      2  C8  <0> d   1       3.513  -5.448   0.435  0.00  0.00     0.076 A 
ATOM      3  C9  <0> d   1       4.455  -5.876   1.367  0.00  0.00     0.038 A 
ATOM      4  C10 <0> d   1       4.095  -6.060   2.672  0.00  0.00     0.021 A 
ATOM      5  C11 <0> d   1       2.781  -5.819   3.072  0.00  0.00     0.051 A 
ATOM      6  C12 <0> d   1       1.823  -5.381   2.143  0.00  0.00     0.101 A 
ATOM      7  O1  <0> d   1       0.634  -5.210   2.761  0.00  0.00    -0.305 OA
ATOM      8  C13 <0> d   1       0.708  -5.501   4.082  0.00  0.00     0.128 A 
ATOM      9  C14 <0> d   1      -0.312  -5.430   4.978  0.00  0.00     0.055 C 
ATOM     10  C24 <0> d   1       2.086  -5.919   4.368  0.00  0.00     0.218 A 
ATOM     11  O5  <0> d   1       2.554  -6.261   5.441  0.00  0.00    -0.284 OA
ENDROOT
BRANCH   9  12
ATOM     12  C15 <0> d   1      -1.674  -5.152   4.516  0.00  0.00     0.003 A 
ATOM     13  C20 <0> d   1      -2.660  -4.743   5.431  0.00  0.00     0.081 A 
ATOM     14  C19 <0> d   1      -3.943  -4.476   4.987  0.00  0.00     0.077 A 
ATOM     15  C18 <0> d   1      -4.259  -4.622   3.645  0.00  0.00     0.104 A 
ATOM     16  C17 <0> d   1      -3.286  -5.034   2.733  0.00  0.00     0.102 A 
ATOM     17  C16 <0> d   1      -2.002  -5.297   3.161  0.00  0.00     0.054 A 
BRANCH  13  18
ATOM     18  O2  <0> d   1      -2.353  -4.605   6.747  0.00  0.00    -0.355 OA
ATOM     19  C21 <0> d   1      -3.405  -4.186   7.618  0.00  0.00     0.210 C 
ENDBRANCH  13  18
BRANCH  15  20
ATOM     20  O3  <0> d   1      -5.522  -4.364   3.216  0.00  0.00    -0.353 OA
ATOM     21  C22 <0> d   1      -6.469  -3.947   4.201  0.00  0.00     0.210 C 
ENDBRANCH  15  20
BRANCH  16  22
ATOM     22  O4  <0> d   1      -3.605  -5.175   1.417  0.00  0.00    -0.353 OA
ATOM     23  C23 <0> d   1      -2.594  -5.706   0.558  0.00  0.00     0.210 C 
ENDBRANCH  16  22
ENDBRANCH   9  12
BRANCH   1  24
ATOM     24  C6  <0> d   1       1.194  -4.740  -0.201  0.00  0.00     0.317 C 
BRANCH  24  25
ATOM     25  N2  <0> d   1       1.306  -3.285  -0.373  0.00  0.00     0.096 N 
ATOM     26  C3  <0> d   1       0.631  -2.848  -1.603  0.00  0.00     0.303 C 
ATOM     27  C2  <0> d   1       0.838  -1.343  -1.787  0.00  0.00     0.302 C 
ATOM     28  N1  <0> d   1       0.305  -0.631  -0.617  0.00  0.00     0.087 N 
ATOM     29  C1  <0> d   1       0.416   0.823  -0.789  0.00  0.00     0.310 C 
ATOM     30  C5  <0> d   1       0.979  -1.069   0.614  0.00  0.00     0.302 C 
ATOM     31  C4  <0> d   1       0.773  -2.574   0.797  0.00  0.00     0.303 C 
ENDBRANCH  24  25
ENDBRANCH   1  24
BRANCH   2  32
ATOM     32  O6  <0> d   1       3.880  -5.268  -0.859  0.00  0.00    -0.360 OA
ATOM     33  H28 <0> d   1       4.194  -4.375  -1.058  0.00  0.00     0.217 HD
ENDBRANCH   2  32
TORSDOF 7
