REMARK  5 active torsions:
REMARK  status: ('A' for Active; 'I' for Inactive)
REMARK    1  A    between atoms: C2_2  and  N1_3 
REMARK    2  A    between atoms: N2_6  and  C7_9 
REMARK    3  A    between atoms: C7_9  and  C8_10 
REMARK    4  A    between atoms: C9_11  and  O5_33 
REMARK    5  A    between atoms: C16_20  and  C17_21 
ROOT
ATOM      1  C8  <0> d   1      -1.155   8.492   2.222  0.00  0.00     0.038 A 
ATOM      2  C9  <0> d   1      -1.636   7.806   3.325  0.00  0.00     0.076 A 
ATOM      3  C10 <0> d   1      -1.607   6.414   3.360  0.00  0.00     0.038 A 
ATOM      4  C11 <0> d   1      -1.104   5.707   2.304  0.00  0.00     0.018 A 
ATOM      5  C12 <0> d   1      -0.616   6.384   1.185  0.00  0.00     0.010 A 
ATOM      6  C13 <0> d   1      -0.642   7.788   1.143  0.00  0.00     0.101 A 
ATOM      7  O1  <0> d   1      -0.169   8.440   0.059  0.00  0.00    -0.274 OA
ATOM      8  C14 <0> d   1       0.335   7.786  -1.000  0.00  0.00     0.289 A 
ATOM      9  O2  <0> d   1       0.748   8.427  -1.951  0.00  0.00    -0.260 OA
ATOM     10  C15 <0> d   1       0.403   6.386  -1.041  0.00  0.00     0.096 A 
ATOM     11  C16 <0> d   1      -0.068   5.648   0.032  0.00  0.00    -0.001 A 
ENDROOT
BRANCH  11  12
ATOM     12  C17 <0> d   1      -0.018   4.174   0.025  0.00  0.00     0.052 A 
ATOM     13  C25 <0> d   1      -1.254   3.384   0.032  0.00  0.00     0.299 A 
ATOM     14  O3  <0> d   1      -1.198   2.042   0.019  0.00  0.00    -0.274 OA
ATOM     15  O4  <0> d   1      -2.334   3.945   0.045  0.00  0.00    -0.259 OA
ATOM     16  C24 <0> d   1      -0.017   1.386   0.010  0.00  0.00     0.089 A 
ATOM     17  C19 <0> d   1       1.199   2.093   0.002  0.00  0.00     0.001 A 
ATOM     18  C23 <0> d   1       0.002  -0.004   0.002  0.00  0.00     0.040 A 
ATOM     19  C18 <0> d   1       1.196   3.511   0.009  0.00  0.00     0.032 A 
ATOM     20  C20 <0> d   1       2.413   1.391  -0.013  0.00  0.00     0.038 A 
ATOM     21  C21 <0> d   1       2.406   0.015  -0.020  0.00  0.00     0.035 A 
ATOM     22  C22 <0> d   1       1.203  -0.680  -0.013  0.00  0.00     0.026 A 
ATOM     23 Cl1  <0> d   1       3.907  -0.857  -0.039  0.00  0.00    -0.084 Cl
ENDBRANCH  11  12
BRANCH   1  24
ATOM     24  C7  <0> d   1      -1.191   9.998   2.194  0.00  0.00     0.317 C 
BRANCH  24  25
ATOM     25  N2  <0> d   1      -2.463  10.447   1.612  0.00  0.00     0.096 N 
ATOM     26  C4  <0> d   1      -2.638  11.896   1.783  0.00  0.00     0.303 C 
ATOM     27  C3  <0> d   1      -4.006  12.310   1.236  0.00  0.00     0.302 C 
ATOM     28  N1  <0> d   1      -4.097  11.935  -0.182  0.00  0.00     0.091 N 
ATOM     29  C6  <0> d   1      -3.922  10.486  -0.353  0.00  0.00     0.302 C 
ATOM     30  C5  <0> d   1      -2.554  10.072   0.194  0.00  0.00     0.303 C 
BRANCH  28  31
ATOM     31  C2  <0> d   1      -5.369  12.384  -0.764  0.00  0.00     0.268 C 
ATOM     32  C1  <0> d   1      -5.327  12.203  -2.283  0.00  0.00     0.037 C 
ENDBRANCH  28  31
ENDBRANCH  24  25
ENDBRANCH   1  24
BRANCH   2  33
ATOM     33  O5  <0> d   1      -2.138   8.495   4.381  0.00  0.00    -0.360 OA
ATOM     34  H23 <0> d   1      -2.521   7.955   5.260  0.00  0.00     0.217 HD
ENDBRANCH   2  33
TORSDOF 5
