REMARK  7 active torsions:
REMARK  status: ('A' for Active; 'I' for Inactive)
REMARK    1  A    between atoms: C3_3  and  O4_22 
REMARK    2  A    between atoms: C8_9  and  O3_21 
REMARK    3  A    between atoms: C9_10  and  C11_13 
REMARK    4  A    between atoms: C11_13  and  N1_14 
REMARK    5  A    between atoms: O4_22  and  C17_23 
REMARK    6  A    between atoms: C20_26  and  C23_29 
REMARK    7  A    between atoms: C23_29  and  O6_31 
ROOT
ATOM      1  C1  <0> d   1      -0.019   1.482  -0.113  0.00  0.00     0.080 C 
ATOM      2  C2  <0> d   1      -0.005  -0.024  -0.060  0.00  0.00     0.087 A 
ATOM      3  C3  <0> d   1      -1.173  -0.676   0.104  0.00  0.00     0.156 A 
ATOM      4  C4  <0> d   1      -1.182  -2.099   0.155  0.00  0.00     0.221 A 
ATOM      5  O1  <0> d   1      -2.220  -2.723   0.302  0.00  0.00    -0.284 OA
ATOM      6  C5  <0> d   1       0.114  -2.786   0.024  0.00  0.00     0.052 A 
ATOM      7  C6  <0> d   1       0.206  -4.178   0.062  0.00  0.00     0.021 A 
ATOM      8  C7  <0> d   1       1.426  -4.780  -0.064  0.00  0.00     0.038 A 
ATOM      9  C8  <0> d   1       2.577  -4.012  -0.229  0.00  0.00     0.076 A 
ATOM     10  C9  <0> d   1       2.502  -2.630  -0.269  0.00  0.00     0.035 A 
ATOM     11  C10 <0> d   1       1.270  -2.003  -0.143  0.00  0.00     0.100 A 
ATOM     12  O2  <0> d   1       1.168  -0.659  -0.184  0.00  0.00    -0.311 OA
ENDROOT
BRANCH   3  13
ATOM     13  O4  <0> d   1      -2.337   0.021   0.219  0.00  0.00    -0.304 OA
BRANCH  13  14
ATOM     14  C17 <0> d   1      -2.986  -0.016   1.410  0.00  0.00     0.076 A 
ATOM     15  C22 <0> d   1      -4.234   0.584   1.538  0.00  0.00     0.038 A 
ATOM     16  C21 <0> d   1      -4.898   0.544   2.743  0.00  0.00     0.020 A 
ATOM     17  C20 <0> d   1      -4.312  -0.092   3.841  0.00  0.00     0.039 A 
ATOM     18  C19 <0> d   1      -3.055  -0.690   3.709  0.00  0.00     0.020 A 
ATOM     19  C18 <0> d   1      -2.400  -0.650   2.500  0.00  0.00     0.038 A 
BRANCH  17  20
ATOM     20  C23 <0> d   1      -5.018  -0.132   5.135  0.00  0.00     0.292 C 
ATOM     21  O5  <0> d   1      -4.507  -0.686   6.089  0.00  0.00    -0.259 OA
BRANCH  20  22
ATOM     22  O6  <0> d   1      -6.229   0.445   5.261  0.00  0.00    -0.323 OA
ATOM     23  C24 <0> d   1      -6.855   0.367   6.543  0.00  0.00     0.213 C 
ENDBRANCH  20  22
ENDBRANCH  17  20
ENDBRANCH  13  14
ENDBRANCH   3  13
BRANCH  10  24
ATOM     24  C11 <0> d   1       3.753  -1.809  -0.447  0.00  0.00     0.279 C 
BRANCH  24  25
ATOM     25  N1  <0> d   1       3.995  -1.590  -1.880  0.00  0.00    -0.064 N 
ATOM     26  C15 <0> d   1       5.145  -0.692  -2.050  0.00  0.00     0.265 C 
ATOM     27  C14 <0> d   1       5.385  -0.449  -3.542  0.00  0.00     0.299 C 
ATOM     28  N2  <0> d   1       5.642  -1.733  -4.209  0.00  0.00     0.087 N 
ATOM     29  C13 <0> d   1       4.509  -2.652  -4.026  0.00  0.00     0.299 C 
ATOM     30  C16 <0> d   1       5.934  -1.536  -5.636  0.00  0.00     0.310 C 
ATOM     31  C12 <0> d   1       4.276  -2.877  -2.530  0.00  0.00     0.265 C 
ATOM     32  H27 <0> d   1       3.178  -1.173  -2.299  0.00  0.00     0.280 HD
ENDBRANCH  24  25
ENDBRANCH  10  24
BRANCH   9  33
ATOM     33  O3  <0> d   1       3.782  -4.624  -0.353  0.00  0.00    -0.360 OA
ATOM     34  H19 <0> d   1       4.026  -4.832  -1.265  0.00  0.00     0.217 HD
ENDBRANCH   9  33
TORSDOF 7
