REMARK  7 active torsions:
REMARK  status: ('A' for Active; 'I' for Inactive)
REMARK    1  A    between atoms: C2_2  and  C3_3 
REMARK    2  A    between atoms: C8_8  and  O1_9 
REMARK    3  A    between atoms: C9_11  and  C20_25 
REMARK    4  A    between atoms: C10_12  and  C12_15 
REMARK    5  A    between atoms: C20_25  and  O4_26 
REMARK    6  A    between atoms: O4_26  and  C21_27 
REMARK    7  A    between atoms: C21_27  and  C22_28 
ROOT
ATOM      1  C3  <0> d   1      -1.396  -0.687   0.059  0.00  0.00    -0.024 A 
ATOM      2  C4  <0> d   1      -2.018  -1.004  -1.116  0.00  0.00     0.028 A 
ATOM      3  C5  <0> d   1      -3.326  -1.484  -1.098  0.00  0.00     0.050 A 
ATOM      4  C6  <0> d   1      -4.013  -1.641   0.119  0.00  0.00     0.092 A 
ATOM      5  C7  <0> d   1      -3.365  -1.318   1.304  0.00  0.00     0.075 A 
ATOM      6  C8  <0> d   1      -2.063  -0.849   1.272  0.00  0.00     0.074 A 
ATOM      7  O2  <0> d   1      -5.283  -2.090   0.133  0.00  0.00    -0.311 OA
ATOM      8  C9  <0> d   1      -5.831  -2.681  -0.929  0.00  0.00     0.095 C 
ATOM      9  C10 <0> d   1      -5.287  -2.604  -2.177  0.00  0.00     0.091 C 
ATOM     10  C11 <0> d   1      -4.031  -1.846  -2.343  0.00  0.00     0.201 C 
ATOM     11  O3  <0> d   1      -3.602  -1.538  -3.441  0.00  0.00    -0.286 OA
ENDROOT
BRANCH   9  12
ATOM     12  C12 <0> d   1      -5.936  -3.259  -3.329  0.00  0.00     0.125 A 
ATOM     13  N2  <0> d   1      -5.409  -4.303  -4.042  0.00  0.00    -0.335 N 
ATOM     14  C18 <0> d   1      -6.320  -4.625  -5.030  0.00  0.00     0.062 A 
ATOM     15  C19 <0> d   1      -4.120  -4.958  -3.801  0.00  0.00     0.158 C 
ATOM     16  C13 <0> d   1      -7.395  -3.732  -4.880  0.00  0.00     0.060 A 
ATOM     17  C17 <0> d   1      -6.349  -5.576  -6.041  0.00  0.00     0.032 A 
ATOM     18  N1  <0> d   1      -7.103  -2.926  -3.829  0.00  0.00    -0.340 N 
ATOM     19  C14 <0> d   1      -8.484  -3.813  -5.753  0.00  0.00     0.032 A 
ATOM     20  H20 <0> d   1      -7.670  -2.213  -3.497  0.00  0.00     0.167 HD
ATOM     21  C15 <0> d   1      -8.494  -4.755  -6.742  0.00  0.00     0.002 A 
ATOM     22  C16 <0> d   1      -7.434  -5.637  -6.891  0.00  0.00     0.002 A 
ENDBRANCH   9  12
BRANCH   8  23
ATOM     23  C20 <0> d   1      -7.103  -3.466  -0.743  0.00  0.00     0.234 C 
BRANCH  23  24
ATOM     24  O4  <0> d   1      -6.847  -4.596   0.093  0.00  0.00    -0.374 OA
BRANCH  24  25
ATOM     25  C21 <0> d   1      -7.995  -5.413   0.334  0.00  0.00     0.281 C 
BRANCH  25  26
ATOM     26  C22 <0> d   1      -7.612  -6.569   1.222  0.00  0.00     0.197 C 
ATOM     27  O5  <0> d   1      -6.462  -6.683   1.612  0.00  0.00    -0.646 OA
ATOM     28  O6  <0> d   1      -8.451  -7.390   1.550  0.00  0.00    -0.646 OA
ENDBRANCH  25  26
ENDBRANCH  24  25
ENDBRANCH  23  24
ENDBRANCH   8  23
BRANCH   1  29
ATOM     29  C2  <0> d   1       0.018  -0.167   0.044  0.00  0.00     0.037 C 
ATOM     30  C1  <0> d   1       0.003   1.355   0.197  0.00  0.00     0.010 C 
ENDBRANCH   1  29
BRANCH   6  31
ATOM     31  O1  <0> d   1      -1.431  -0.539   2.433  0.00  0.00    -0.360 OA
ATOM     32  H8  <0> d   1      -1.550   0.378   2.713  0.00  0.00     0.217 HD
ENDBRANCH   6  31
TORSDOF 7
