REMARK  5 active torsions:
REMARK  status: ('A' for Active; 'I' for Inactive)
REMARK    1  A    between atoms: C2_2  and  N1_3 
REMARK    2  A    between atoms: C4_5  and  C12_14 
REMARK    3  A    between atoms: C9_10  and  O1_12 
REMARK    4  A    between atoms: C19_22  and  C21_25 
REMARK    5  A    between atoms: C21_25  and  N2_26 
ROOT
ATOM      1  C12 <0> d   1      -1.337   4.675   0.038  0.00  0.00     0.055 C 
ATOM      2  C13 <0> d   1      -0.568   3.550   0.026  0.00  0.00     0.128 A 
ATOM      3  C14 <0> d   1       0.851   3.514   0.012  0.00  0.00     0.218 A 
ATOM      4  O2  <0> d   1       1.616   4.465   0.010  0.00  0.00    -0.284 OA
ATOM      5  C15 <0> d   1       1.202   2.083   0.002  0.00  0.00     0.051 A 
ATOM      6  C16 <0> d   1       2.412   1.391  -0.014  0.00  0.00     0.021 A 
ATOM      7  C17 <0> d   1       2.414   0.024  -0.021  0.00  0.00     0.041 A 
ATOM      8  C18 <0> d   1       1.212  -0.678  -0.013  0.00  0.00     0.118 A 
ATOM      9  C19 <0> d   1       0.002  -0.004   0.002  0.00  0.00     0.041 A 
ATOM     10  C20 <0> d   1      -0.017   1.384   0.010  0.00  0.00     0.101 A 
ATOM     11  O3  <0> d   1      -1.030   2.277   0.019  0.00  0.00    -0.305 OA
ATOM     12  O5  <0> d   1       1.226  -2.036  -0.020  0.00  0.00    -0.191 OA
ENDROOT
BRANCH   1  13
ATOM     13  C4  <0> d   1      -2.794   4.565   0.051  0.00  0.00    -0.005 A 
ATOM     14  C3  <0> d   1      -3.535   3.403   0.053  0.00  0.00     0.103 A 
ATOM     15  N1  <0> d   1      -4.856   3.709   0.068  0.00  0.00    -0.356 N 
ATOM     16  C6  <0> d   1      -5.036   5.079   0.075  0.00  0.00     0.045 A 
ATOM     17  C5  <0> d   1      -3.765   5.676   0.072  0.00  0.00     0.005 A 
ATOM     18  C7  <0> d   1      -6.169   5.885   0.091  0.00  0.00     0.033 A 
ATOM     19  C10 <0> d   1      -3.644   7.062   0.071  0.00  0.00     0.051 A 
ATOM     20  C9  <0> d   1      -4.781   7.848   0.086  0.00  0.00     0.069 A 
ATOM     21  C8  <0> d   1      -6.040   7.256   0.096  0.00  0.00     0.039 A 
BRANCH  15  22
ATOM     22  C2  <0> d   1      -5.941   2.724   0.074  0.00  0.00     0.124 C 
ATOM     23  C1  <0> d   1      -6.417   2.481  -1.359  0.00  0.00     0.027 C 
ENDBRANCH  15  22
BRANCH  20  24
ATOM     24  O1  <0> d   1      -4.669   9.204   0.092  0.00  0.00    -0.356 OA
ATOM     25  C11 <0> d   1      -5.885   9.955   0.108  0.00  0.00     0.210 C 
ENDBRANCH  20  24
ENDBRANCH   1  13
BRANCH   9  26
ATOM     26  C21 <0> d   1      -1.292  -0.776   0.010  0.00  0.00     0.317 C 
BRANCH  26  27
ATOM     27  N2  <0> d   1      -1.725  -1.020  -1.373  0.00  0.00     0.097 N 
ATOM     28  C25 <0> d   1      -2.849  -1.967  -1.414  0.00  0.00     0.299 C 
ATOM     29  C24 <0> d   1      -3.228  -2.238  -2.872  0.00  0.00     0.198 C 
ATOM     30  O4  <0> d   1      -3.541  -0.999  -3.516  0.00  0.00    -0.388 OA
ATOM     31  C23 <0> d   1      -2.468  -0.053  -3.495  0.00  0.00     0.198 C 
ATOM     32  C22 <0> d   1      -2.081   0.239  -2.043  0.00  0.00     0.299 C 
ENDBRANCH  26  27
ENDBRANCH   9  26
TORSDOF 5
