REMARK  9 active torsions:
REMARK  status: ('A' for Active; 'I' for Inactive)
REMARK    1  A    between atoms: C3_3  and  O3_24 
REMARK    2  A    between atoms: C6_6  and  C8_9 
REMARK    3  A    between atoms: C7_7  and  O1_8 
REMARK    4  A    between atoms: C9_10  and  C12_16 
REMARK    5  A    between atoms: C15_19  and  O2_22 
REMARK    6  A    between atoms: O3_24  and  C19_25 
REMARK    7  A    between atoms: C19_25  and  C20_26 
REMARK    8  A    between atoms: C20_26  and  N3_27 
REMARK    9  A    between atoms: N4_30  and  C25_33 
ROOT
ATOM      1  C1  <0> d   1       1.341   2.619  -1.669  0.00  0.00     0.054 C 
ATOM      2  C2  <0> d   1       1.134   1.207  -1.184  0.00  0.00     0.005 A 
ATOM      3  C3  <0> d   1       1.015   0.170  -2.099  0.00  0.00     0.077 A 
ATOM      4  C4  <0> d   1       0.824  -1.132  -1.657  0.00  0.00     0.038 A 
ATOM      5  C5  <0> d   1       0.750  -1.402  -0.306  0.00  0.00     0.019 A 
ATOM      6  C6  <0> d   1       0.869  -0.367   0.619  0.00  0.00     0.029 A 
ATOM      7  C7  <0> d   1       1.067   0.944   0.173  0.00  0.00     0.087 A 
ENDROOT
BRANCH   3   8
ATOM      8  O3  <0> d   1       1.086   0.430  -3.430  0.00  0.00    -0.349 OA
BRANCH   8   9
ATOM      9  C19 <0> d   1       0.957  -0.684  -4.316  0.00  0.00     0.206 C 
BRANCH   9  10
ATOM     10  C20 <0> d   1       1.062  -0.199  -5.764  0.00  0.00     0.299 C 
BRANCH  10  11
ATOM     11  N3  <0> d   1       2.407   0.340  -6.003  0.00  0.00     0.093 N 
ATOM     12  C24 <0> d   1       3.389  -0.742  -6.157  0.00  0.00     0.292 C 
ATOM     13  C23 <0> d   1       4.798  -0.143  -6.223  0.00  0.00     0.153 C 
ATOM     14  N4  <0> d   1       4.824   0.876  -7.283  0.00  0.00    -0.378 N 
ATOM     15  C22 <0> d   1       3.785   1.917  -7.273  0.00  0.00     0.153 C 
ATOM     16  C21 <0> d   1       2.416   1.237  -7.166  0.00  0.00     0.292 C 
BRANCH  14  17
ATOM     17  C25 <0> d   1       5.808   0.855  -8.273  0.00  0.00     0.030 A 
ATOM     18  C30 <0> d   1       6.721  -0.191  -8.325  0.00  0.00     0.029 A 
ATOM     19  C29 <0> d   1       7.690  -0.211  -9.309  0.00  0.00     0.002 A 
ATOM     20  C28 <0> d   1       7.760   0.814 -10.235  0.00  0.00     0.000 A 
ATOM     21  C27 <0> d   1       6.856   1.859 -10.183  0.00  0.00     0.002 A 
ATOM     22  C26 <0> d   1       5.881   1.883  -9.205  0.00  0.00     0.029 A 
ENDBRANCH  14  17
ENDBRANCH  10  11
ENDBRANCH   9  10
ENDBRANCH   8   9
ENDBRANCH   3   8
BRANCH   7  23
ATOM     23  O1  <0> d   1       1.188   1.958   1.069  0.00  0.00    -0.359 OA
ATOM     24  H7  <0> d   1       0.348   2.373   1.310  0.00  0.00     0.217 HD
ENDBRANCH   7  23
BRANCH   6  25
ATOM     25  C8  <0> d   1       0.790  -0.654   2.071  0.00  0.00     0.103 A 
ATOM     26  N2  <0> d   1       1.595  -0.183   2.999  0.00  0.00    -0.173 NA
ATOM     27  N1  <0> d   1       1.183  -0.687   4.238  0.00  0.00    -0.281 N 
ATOM     28  C10 <0> d   1       0.114  -1.485   4.041  0.00  0.00     0.037 A 
ATOM     29  H1  <0> d   1       1.600  -0.498   5.094  0.00  0.00     0.189 HD
ATOM     30  C9  <0> d   1      -0.162  -1.491   2.706  0.00  0.00     0.029 A 
ATOM     31  C11 <0> d   1      -0.642  -2.236   5.106  0.00  0.00     0.070 C 
BRANCH  30  32
ATOM     32  C12 <0> d   1      -1.259  -2.236   2.040  0.00  0.00    -0.021 A 
ATOM     33  C17 <0> d   1      -1.233  -3.628   1.998  0.00  0.00     0.015 A 
ATOM     34  C16 <0> d   1      -2.257  -4.318   1.383  0.00  0.00     0.037 A 
ATOM     35  C15 <0> d   1      -3.307  -3.626   0.796  0.00  0.00     0.068 A 
ATOM     36  C14 <0> d   1      -3.333  -2.239   0.831  0.00  0.00     0.037 A 
ATOM     37  C13 <0> d   1      -2.315  -1.544   1.450  0.00  0.00     0.015 A 
BRANCH  35  38
ATOM     38  O2  <0> d   1      -4.312  -4.308   0.186  0.00  0.00    -0.356 OA
ATOM     39  C18 <0> d   1      -4.222  -5.734   0.187  0.00  0.00     0.210 C 
ENDBRANCH  35  38
ENDBRANCH  30  32
ENDBRANCH   6  25
TORSDOF 9
