REMARK  6 active torsions:
REMARK  status: ('A' for Active; 'I' for Inactive)
REMARK    1  A    between atoms: N2_5  and  C6_8 
REMARK    2  A    between atoms: C6_8  and  C7_9 
REMARK    3  A    between atoms: C8_10  and  O5_30 
REMARK    4  A    between atoms: C14_17  and  C15_18 
REMARK    5  A    between atoms: C18_21  and  C21_24 
REMARK    6  A    between atoms: C21_24  and  O3_26 
ROOT
ATOM      1  C7  <0> d   1       2.322  -4.035   1.200  0.00  0.00     0.038 A 
ATOM      2  C8  <0> d   1       3.644  -4.313   0.888  0.00  0.00     0.076 A 
ATOM      3  C9  <0> d   1       4.439  -5.046   1.765  0.00  0.00     0.038 A 
ATOM      4  C10 <0> d   1       3.920  -5.501   2.945  0.00  0.00     0.021 A 
ATOM      5  C11 <0> d   1       2.591  -5.229   3.271  0.00  0.00     0.051 A 
ATOM      6  C12 <0> d   1       1.781  -4.485   2.398  0.00  0.00     0.101 A 
ATOM      7  O1  <0> d   1       0.546  -4.346   2.927  0.00  0.00    -0.305 OA
ATOM      8  C13 <0> d   1       0.444  -4.949   4.134  0.00  0.00     0.127 A 
ATOM      9  C14 <0> d   1      -0.660  -4.990   4.919  0.00  0.00     0.053 C 
ATOM     10  C23 <0> d   1       1.750  -5.565   4.434  0.00  0.00     0.218 A 
ATOM     11  O4  <0> d   1       2.066  -6.199   5.425  0.00  0.00    -0.284 OA
ENDROOT
BRANCH   9  12
ATOM     12  C15 <0> d   1      -1.937  -4.460   4.419  0.00  0.00    -0.033 A 
ATOM     13  C20 <0> d   1      -3.035  -4.347   5.281  0.00  0.00     0.012 A 
ATOM     14  C19 <0> d   1      -4.223  -3.848   4.815  0.00  0.00     0.018 A 
ATOM     15  C18 <0> d   1      -4.343  -3.462   3.477  0.00  0.00     0.039 A 
ATOM     16  C17 <0> d   1      -3.250  -3.579   2.614  0.00  0.00     0.018 A 
ATOM     17  C16 <0> d   1      -2.059  -4.072   3.079  0.00  0.00     0.012 A 
BRANCH  15  18
ATOM     18  C21 <0> d   1      -5.626  -2.929   2.975  0.00  0.00     0.292 C 
ATOM     19  O2  <0> d   1      -5.731  -2.593   1.813  0.00  0.00    -0.259 OA
BRANCH  18  20
ATOM     20  O3  <0> d   1      -6.680  -2.817   3.807  0.00  0.00    -0.323 OA
ATOM     21  C22 <0> d   1      -7.890  -2.294   3.254  0.00  0.00     0.213 C 
ENDBRANCH  18  20
ENDBRANCH  15  18
ENDBRANCH   9  12
BRANCH   1  22
ATOM     22  C6  <0> d   1       1.473  -3.239   0.242  0.00  0.00     0.317 C 
BRANCH  22  23
ATOM     23  N2  <0> d   1       1.596  -1.808   0.551  0.00  0.00     0.096 N 
ATOM     24  C3  <0> d   1       0.978  -0.988  -0.499  0.00  0.00     0.303 C 
ATOM     25  C2  <0> d   1       1.196   0.493  -0.180  0.00  0.00     0.302 C 
ATOM     26  N1  <0> d   1       0.615   0.800   1.134  0.00  0.00     0.087 N 
ATOM     27  C1  <0> d   1       0.738   2.231   1.443  0.00  0.00     0.310 C 
ATOM     28  C5  <0> d   1       1.233  -0.021   2.185  0.00  0.00     0.302 C 
ATOM     29  C4  <0> d   1       1.015  -1.502   1.866  0.00  0.00     0.303 C 
ENDBRANCH  22  23
ENDBRANCH   1  22
BRANCH   2  30
ATOM     30  O5  <0> d   1       4.167  -3.866  -0.281  0.00  0.00    -0.360 OA
ATOM     31  H24 <0> d   1       4.570  -2.989  -0.222  0.00  0.00     0.217 HD
ENDBRANCH   2  30
TORSDOF 6
