REMARK  9 active torsions:
REMARK  status: ('A' for Active; 'I' for Inactive)
REMARK    1  A    between atoms: O1_2  and  C2_3 
REMARK    2  A    between atoms: C5_6  and  C8_9 
REMARK    3  A    between atoms: C10_14  and  C11_15 
REMARK    4  A    between atoms: C14_18  and  O3_22 
REMARK    5  A    between atoms: C16_20  and  O2_21 
REMARK    6  A    between atoms: O3_22  and  C17_23 
REMARK    7  A    between atoms: C17_23  and  C18_24 
REMARK    8  A    between atoms: C18_24  and  N3_25 
REMARK    9  A    between atoms: N4_28  and  C23_31 
ROOT
ATOM      1  C11 <0> d   1      -5.016  -4.912  -2.351  0.00  0.00     0.029 A 
ATOM      2  C12 <0> d   1      -3.732  -4.376  -2.271  0.00  0.00     0.019 A 
ATOM      3  C13 <0> d   1      -2.815  -4.632  -3.268  0.00  0.00     0.038 A 
ATOM      4  C14 <0> d   1      -3.167  -5.424  -4.354  0.00  0.00     0.071 A 
ATOM      5  C15 <0> d   1      -4.443  -5.961  -4.441  0.00  0.00     0.074 A 
ATOM      6  C16 <0> d   1      -5.368  -5.714  -3.442  0.00  0.00     0.081 A 
ENDROOT
BRANCH   4   7
ATOM      7  O3  <0> d   1      -2.259  -5.672  -5.334  0.00  0.00    -0.349 OA
BRANCH   7   8
ATOM      8  C17 <0> d   1      -0.964  -5.088  -5.182  0.00  0.00     0.206 C 
BRANCH   8   9
ATOM      9  C18 <0> d   1      -0.086  -5.476  -6.373  0.00  0.00     0.299 C 
BRANCH   9  10
ATOM     10  N3  <0> d   1      -0.649  -4.904  -7.604  0.00  0.00     0.093 N 
ATOM     11  C22 <0> d   1      -0.380  -3.462  -7.686  0.00  0.00     0.292 C 
ATOM     12  C21 <0> d   1      -1.133  -2.872  -8.882  0.00  0.00     0.153 C 
ATOM     13  N4  <0> d   1      -0.777  -3.641 -10.084  0.00  0.00    -0.375 N 
ATOM     14  C20 <0> d   1      -0.890  -5.106 -10.032  0.00  0.00     0.153 C 
ATOM     15  C19 <0> d   1      -0.146  -5.609  -8.790  0.00  0.00     0.292 C 
BRANCH  13  16
ATOM     16  C23 <0> d   1      -0.341  -2.996 -11.246  0.00  0.00     0.069 A 
ATOM     17  C28 <0> d   1       1.014  -2.749 -11.440  0.00  0.00     0.142 A 
ATOM     18  C27 <0> d   1       1.440  -2.115 -12.593  0.00  0.00     0.044 A 
ATOM     19  F1  <0> d   1       1.912  -3.132 -10.507  0.00  0.00    -0.204 F 
ATOM     20  C26 <0> d   1       0.520  -1.718 -13.546  0.00  0.00     0.003 A 
ATOM     21  C25 <0> d   1      -0.828  -1.957 -13.352  0.00  0.00     0.002 A 
ATOM     22  C24 <0> d   1      -1.261  -2.595 -12.206  0.00  0.00     0.032 A 
ENDBRANCH  13  16
ENDBRANCH   9  10
ENDBRANCH   8   9
ENDBRANCH   7   8
ENDBRANCH   4   7
BRANCH   6  23
ATOM     23  O2  <0> d   1      -6.616  -6.244  -3.522  0.00  0.00    -0.360 OA
ATOM     24  H13 <0> d   1      -7.253  -5.681  -3.983  0.00  0.00     0.217 HD
ENDBRANCH   6  23
BRANCH   1  25
ATOM     25  C10 <0> d   1      -6.004  -4.638  -1.280  0.00  0.00     0.102 A 
ATOM     26  C8  <0> d   1      -5.772  -4.739   0.115  0.00  0.00     0.022 A 
ATOM     27  C9  <0> d   1      -6.930  -4.398   0.748  0.00  0.00     0.124 A 
ATOM     28  N1  <0> d   1      -7.847  -4.103  -0.198  0.00  0.00    -0.288 N 
ATOM     29  H1  <0> d   1      -8.762  -3.827  -0.034  0.00  0.00     0.188 HD
ATOM     30  N2  <0> d   1      -7.252  -4.262  -1.455  0.00  0.00    -0.174 NA
BRANCH  26  31
ATOM     31  C5  <0> d   1      -4.500  -5.137   0.767  0.00  0.00    -0.022 A 
ATOM     32  C4  <0> d   1      -3.904  -4.296   1.705  0.00  0.00     0.015 A 
ATOM     33  C3  <0> d   1      -2.721  -4.669   2.310  0.00  0.00     0.037 A 
ATOM     34  C2  <0> d   1      -2.126  -5.880   1.986  0.00  0.00     0.068 A 
ATOM     35  C7  <0> d   1      -2.715  -6.717   1.048  0.00  0.00     0.037 A 
ATOM     36  C6  <0> d   1      -3.900  -6.352   0.444  0.00  0.00     0.015 A 
BRANCH  34  37
ATOM     37  O1  <0> d   1      -0.961  -6.245   2.584  0.00  0.00    -0.356 OA
ATOM     38  C1  <0> d   1      -0.410  -5.336   3.539  0.00  0.00     0.210 C 
ENDBRANCH  34  37
ENDBRANCH  26  31
ENDBRANCH   1  25
TORSDOF 9
