REMARK  7 active torsions:
REMARK  status: ('A' for Active; 'I' for Inactive)
REMARK    1  A    between atoms: C2_2  and  N1_3 
REMARK    2  A    between atoms: N2_6  and  C7_9 
REMARK    3  A    between atoms: C7_9  and  C8_10 
REMARK    4  A    between atoms: C9_11  and  O4_30 
REMARK    5  A    between atoms: C15_18  and  C16_19 
REMARK    6  A    between atoms: C21_24  and  O2_25 
REMARK    7  A    between atoms: O2_25  and  C22_26 
ROOT
ATOM      1  C8  <0> d   1      -3.936  -4.226  -0.751  0.00  0.00     0.036 A 
ATOM      2  C9  <0> d   1      -3.792  -5.013  -1.882  0.00  0.00     0.076 A 
ATOM      3  C10 <0> d   1      -3.922  -6.397  -1.803  0.00  0.00     0.038 A 
ATOM      4  C11 <0> d   1      -4.193  -6.993  -0.603  0.00  0.00     0.021 A 
ATOM      5  C12 <0> d   1      -4.340  -6.213   0.544  0.00  0.00     0.051 A 
ATOM      6  C13 <0> d   1      -4.206  -4.816   0.477  0.00  0.00     0.101 A 
ATOM      7  O1  <0> d   1      -4.382  -4.283   1.705  0.00  0.00    -0.305 OA
ATOM      8  C14 <0> d   1      -4.628  -5.234   2.637  0.00  0.00     0.128 A 
ATOM      9  C15 <0> d   1      -4.849  -5.023   3.960  0.00  0.00     0.055 C 
ATOM     10  C24 <0> d   1      -4.628  -6.536   1.953  0.00  0.00     0.218 A 
ATOM     11  O3  <0> d   1      -4.811  -7.636   2.444  0.00  0.00    -0.284 OA
ENDROOT
BRANCH   1  12
ATOM     12  C7  <0> d   1      -3.792  -2.729  -0.852  0.00  0.00     0.279 C 
BRANCH  12  13
ATOM     13  N2  <0> d   1      -2.387  -2.356  -0.641  0.00  0.00    -0.064 N 
ATOM     14  C4  <0> d   1      -2.226  -0.912  -0.857  0.00  0.00     0.265 C 
ATOM     15  C3  <0> d   1      -0.759  -0.527  -0.655  0.00  0.00     0.300 C 
ATOM     16  N1  <0> d   1      -0.345  -0.884   0.709  0.00  0.00     0.091 N 
ATOM     17  C6  <0> d   1      -0.524  -2.324   0.948  0.00  0.00     0.300 C 
ATOM     18  C5  <0> d   1      -1.993  -2.694   0.733  0.00  0.00     0.265 C 
ATOM     19  H29 <0> d   1      -1.804  -2.861  -1.292  0.00  0.00     0.280 HD
BRANCH  16  20
ATOM     20  C2  <0> d   1       1.044  -0.478   0.960  0.00  0.00     0.268 C 
ATOM     21  C1  <0> d   1       1.139   1.049   0.946  0.00  0.00     0.037 C 
ENDBRANCH  16  20
ENDBRANCH  12  13
ENDBRANCH   1  12
BRANCH   2  22
ATOM     22  O4  <0> d   1      -3.523  -4.431  -3.078  0.00  0.00    -0.360 OA
ATOM     23  H28 <0> d   1      -2.579  -4.333  -3.265  0.00  0.00     0.217 HD
ENDBRANCH   2  22
BRANCH   9  24
ATOM     24  C16 <0> d   1      -4.716  -3.674   4.520  0.00  0.00     0.000 A 
ATOM     25  C21 <0> d   1      -4.588  -3.493   5.907  0.00  0.00     0.079 A 
ATOM     26  C20 <0> d   1      -4.457  -2.213   6.423  0.00  0.00     0.037 A 
ATOM     27  C19 <0> d   1      -4.464  -1.121   5.578  0.00  0.00     0.003 A 
ATOM     28  C18 <0> d   1      -4.595  -1.293   4.209  0.00  0.00     0.001 A 
ATOM     29  C17 <0> d   1      -4.721  -2.557   3.675  0.00  0.00     0.014 A 
BRANCH  25  30
ATOM     30  O2  <0> d   1      -4.588  -4.566   6.737  0.00  0.00    -0.351 OA
BRANCH  30  31
ATOM     31  C22 <0> d   1      -4.454  -4.305   8.136  0.00  0.00     0.171 C 
ATOM     32  C23 <0> d   1      -4.474  -5.627   8.906  0.00  0.00     0.034 C 
ENDBRANCH  30  31
ENDBRANCH  25  30
ENDBRANCH   9  24
TORSDOF 7
