REMARK  4 active torsions:
REMARK  status: ('A' for Active; 'I' for Inactive)
REMARK    1  A    between atoms: N1_6  and  C7_8 
REMARK    2  A    between atoms: C7_8  and  C8_9 
REMARK    3  A    between atoms: C9_10  and  O3_30 
REMARK    4  A    between atoms: C15_17  and  C16_18 
ROOT
ATOM      1  C8  <0> d   1      -1.940  -3.442  -0.005  0.00  0.00     0.036 A 
ATOM      2  C9  <0> d   1      -2.791  -4.535  -0.007  0.00  0.00     0.076 A 
ATOM      3  C10 <0> d   1      -4.171  -4.357  -0.000  0.00  0.00     0.038 A 
ATOM      4  C11 <0> d   1      -4.703  -3.099   0.009  0.00  0.00     0.021 A 
ATOM      5  C12 <0> d   1      -3.859  -1.988   0.011  0.00  0.00     0.051 A 
ATOM      6  C13 <0> d   1      -2.464  -2.156   0.004  0.00  0.00     0.101 A 
ATOM      7  O1  <0> d   1      -1.879  -0.939   0.001  0.00  0.00    -0.305 OA
ATOM      8  C14 <0> d   1      -2.801   0.053   0.016  0.00  0.00     0.128 A 
ATOM      9  C15 <0> d   1      -2.533   1.389   0.021  0.00  0.00     0.055 C 
ATOM     10  C25 <0> d   1      -4.095  -0.534   0.018  0.00  0.00     0.218 A 
ATOM     11  O2  <0> d   1      -5.170   0.042   0.026  0.00  0.00    -0.284 OA
ENDROOT
BRANCH   9  12
ATOM     12  C16 <0> d   1      -1.149   1.856   0.017  0.00  0.00    -0.005 A 
ATOM     13  C19 <0> d   1      -0.688   3.258   0.025  0.00  0.00     0.002 A 
ATOM     14  C18 <0> d   1       0.715   3.204   0.012  0.00  0.00     0.045 A 
ATOM     15  C20 <0> d   1      -1.339   4.488   0.037  0.00  0.00     0.014 A 
ATOM     16  N2  <0> d   1       1.084   1.873   0.002  0.00  0.00    -0.360 N 
ATOM     17  C23 <0> d   1       1.443   4.389   0.011  0.00  0.00     0.030 A 
ATOM     18  C17 <0> d   1      -0.013   1.076   0.008  0.00  0.00     0.103 A 
ATOM     19  C24 <0> d   1       2.467   1.391  -0.013  0.00  0.00     0.156 C 
ATOM     20  C22 <0> d   1       0.785   5.600   0.023  0.00  0.00     0.002 A 
ATOM     21  C21 <0> d   1      -0.601   5.652   0.036  0.00  0.00     0.001 A 
ENDBRANCH   9  12
BRANCH   1  22
ATOM     22  C7  <0> d   1      -0.447  -3.647  -0.012  0.00  0.00     0.279 C 
BRANCH  22  23
ATOM     23  N1  <0> d   1       0.044  -3.721   1.371  0.00  0.00    -0.067 N 
ATOM     24  C5  <0> d   1      -0.806  -4.600   2.185  0.00  0.00     0.235 C 
ATOM     25  C4  <0> d   1      -0.354  -4.539   3.646  0.00  0.00     0.028 C 
ATOM     26  C3  <0> d   1       1.108  -4.981   3.741  0.00  0.00     0.007 C 
ATOM     27  C2  <0> d   1       1.965  -4.080   2.847  0.00  0.00     0.007 C 
ATOM     28  C1  <0> d   1       3.420  -4.552   2.890  0.00  0.00     0.011 C 
ATOM     29  C6  <0> d   1       1.446  -4.155   1.409  0.00  0.00     0.239 C 
ATOM     30  H26 <0> d   1      -0.007  -2.711   1.804  0.00  0.00     0.280 HD
ENDBRANCH  22  23
ENDBRANCH   1  22
BRANCH   2  31
ATOM     31  O3  <0> d   1      -2.273  -5.790  -0.015  0.00  0.00    -0.360 OA
ATOM     32  H27 <0> d   1      -2.945  -6.662  -0.017  0.00  0.00     0.217 HD
ENDBRANCH   2  31
TORSDOF 4
