REMARK  5 active torsions:
REMARK  status: ('A' for Active; 'I' for Inactive)
REMARK    1  A    between atoms: C6_6  and  C11_13 
REMARK    2  A    between atoms: C11_13  and  N1_14 
REMARK    3  A    between atoms: N2_17  and  C16_20 
REMARK    4  A    between atoms: C16_20  and  C17_21 
REMARK    5  A    between atoms: C17_21  and  O3_22 
ROOT
ATOM      1  C1  <0> d   1      -0.018   1.503   0.010  0.00  0.00     0.048 C 
ATOM      2  C2  <0> d   1       0.002  -0.004   0.002  0.00  0.00    -0.059 A 
ATOM      3  C3  <0> d   1       0.006  -0.684  -1.207  0.00  0.00     0.007 A 
ATOM      4  C4  <0> d   1       0.025  -2.050  -1.235  0.00  0.00     0.015 A 
ATOM      5  C5  <0> d   1       0.040  -2.768  -0.035  0.00  0.00     0.006 A 
ATOM      6  C6  <0> d   1       0.061  -4.234  -0.030  0.00  0.00    -0.011 A 
ATOM      7  C7  <0> d   1       0.077  -4.870   1.169  0.00  0.00     0.092 A 
ATOM      8  C8  <0> d   1       0.072  -4.118   2.363  0.00  0.00     0.288 A 
ATOM      9  O1  <0> d   1       0.086  -4.701   3.432  0.00  0.00    -0.260 OA
ATOM     10  O2  <0> d   1       0.053  -2.776   2.350  0.00  0.00    -0.275 OA
ATOM     11  C9  <0> d   1       0.037  -2.082   1.193  0.00  0.00     0.090 A 
ATOM     12  C10 <0> d   1       0.023  -0.693   1.196  0.00  0.00     0.045 A 
ENDROOT
BRANCH   6  13
ATOM     13  C11 <0> d   1       0.066  -5.012  -1.320  0.00  0.00     0.312 C 
BRANCH  13  14
ATOM     14  N1  <0> d   1      -1.315  -5.181  -1.794  0.00  0.00     0.096 N 
ATOM     15  C15 <0> d   1      -1.339  -5.724  -3.160  0.00  0.00     0.303 C 
ATOM     16  C14 <0> d   1      -2.788  -5.810  -3.645  0.00  0.00     0.302 C 
ATOM     17  N2  <0> d   1      -3.559  -6.662  -2.729  0.00  0.00     0.093 N 
ATOM     18  C13 <0> d   1      -3.534  -6.120  -1.364  0.00  0.00     0.302 C 
ATOM     19  C12 <0> d   1      -2.085  -6.034  -0.878  0.00  0.00     0.303 C 
BRANCH  17  20
ATOM     20  C16 <0> d   1      -4.939  -6.832  -3.203  0.00  0.00     0.298 C 
BRANCH  20  21
ATOM     21  C17 <0> d   1      -4.935  -7.622  -4.513  0.00  0.00     0.194 C 
BRANCH  21  22
ATOM     22  O3  <0> d   1      -4.454  -8.945  -4.270  0.00  0.00    -0.399 OA
ATOM     23  H22 <0> d   1      -4.424  -9.504  -5.058  0.00  0.00     0.209 HD
ENDBRANCH  21  22
ENDBRANCH  20  21
ENDBRANCH  17  20
ENDBRANCH  13  14
ENDBRANCH   6  13
TORSDOF 5
