REMARK  4 active torsions:
REMARK  status: ('A' for Active; 'I' for Inactive)
REMARK    1  A    between atoms: C5_5  and  C7_7 
REMARK    2  A    between atoms: C13_14  and  O4_33 
REMARK    3  A    between atoms: C14_15  and  C16_18 
REMARK    4  A    between atoms: C16_18  and  N1_19 
ROOT
ATOM      1  C7  <0> d   1       0.002  -0.004   0.002  0.00  0.00     0.054 C 
ATOM      2  C8  <0> d   1       0.021   1.329   0.253  0.00  0.00     0.128 A 
ATOM      3  C9  <0> d   1       1.205   2.202   0.230  0.00  0.00     0.218 A 
ATOM      4  O1  <0> d   1       2.358   1.889  -0.012  0.00  0.00    -0.284 OA
ATOM      5  C10 <0> d   1       0.685   3.539   0.567  0.00  0.00     0.051 A 
ATOM      6  C11 <0> d   1       1.288   4.790   0.708  0.00  0.00     0.021 A 
ATOM      7  C12 <0> d   1       0.530   5.878   1.035  0.00  0.00     0.038 A 
ATOM      8  C13 <0> d   1      -0.843   5.742   1.227  0.00  0.00     0.076 A 
ATOM      9  C14 <0> d   1      -1.455   4.507   1.089  0.00  0.00     0.036 A 
ATOM     10  C15 <0> d   1      -0.698   3.390   0.758  0.00  0.00     0.101 A 
ATOM     11  O2  <0> d   1      -1.048   2.100   0.563  0.00  0.00    -0.305 OA
ENDROOT
BRANCH   9  12
ATOM     12  C16 <0> d   1      -2.941   4.375   1.299  0.00  0.00     0.279 C 
BRANCH  12  13
ATOM     13  N1  <0> d   1      -3.637   4.587   0.023  0.00  0.00    -0.066 N 
ATOM     14  C21 <0> d   1      -3.322   3.515  -0.934  0.00  0.00     0.245 C 
ATOM     15  C20 <0> d   1      -4.214   3.707  -2.171  0.00  0.00     0.062 C 
ATOM     16  C19 <0> d   1      -3.819   5.030  -2.839  0.00  0.00     0.020 C 
ATOM     17  C22 <0> d   1      -5.644   3.801  -1.689  0.00  0.00     0.020 A 
ATOM     18  C18 <0> d   1      -4.081   6.151  -1.829  0.00  0.00     0.031 C 
ATOM     19  C17 <0> d   1      -3.319   5.905  -0.536  0.00  0.00     0.241 C 
ATOM     20  C27 <0> d   1      -5.576   6.277  -1.591  0.00  0.00     0.138 C 
ATOM     21  N2  <0> d   1      -6.216   4.982  -1.362  0.00  0.00    -0.317 N 
ATOM     22  C26 <0> d   1      -7.454   5.001  -0.806  0.00  0.00     0.247 A 
ATOM     23  C25 <0> d   1      -8.204   3.823  -0.687  0.00  0.00     0.074 A 
ATOM     24  O3  <0> d   1      -7.919   6.055  -0.405  0.00  0.00    -0.268 OA
ATOM     25  C24 <0> d   1      -7.654   2.642  -1.090  0.00  0.00     0.007 A 
ATOM     26  C23 <0> d   1      -6.346   2.641  -1.589  0.00  0.00     0.026 A 
ATOM     27  H23 <0> d   1      -4.719   4.560   0.218  0.00  0.00     0.280 HD
ENDBRANCH  12  13
ENDBRANCH   9  12
BRANCH   8  28
ATOM     28  O4  <0> d   1      -1.588   6.829   1.552  0.00  0.00    -0.360 OA
ATOM     29  H24 <0> d   1      -2.672   6.727   1.704  0.00  0.00     0.217 HD
ENDBRANCH   8  28
BRANCH   1  30
ATOM     30  C5  <0> d   1      -1.254  -0.756   0.121  0.00  0.00    -0.012 A 
ATOM     31  C4  <0> d   1      -1.232  -2.153   0.225  0.00  0.00     0.044 A 
ATOM     32  C3  <0> d   1      -2.417  -2.852   0.337  0.00  0.00     0.024 A 
ATOM     33 Cl1  <0> d   1       0.282  -3.003   0.213  0.00  0.00    -0.083 Cl
ATOM     34  C2  <0> d   1      -3.624  -2.175   0.346  0.00  0.00     0.002 A 
ATOM     35  C1  <0> d   1      -3.655  -0.795   0.244  0.00  0.00     0.001 A 
ATOM     36  C6  <0> d   1      -2.480  -0.081   0.137  0.00  0.00     0.013 A 
ENDBRANCH   1  30
TORSDOF 4
