REMARK  1 active torsions:
REMARK  status: ('A' for Active; 'I' for Inactive)
REMARK    1  A    between atoms: C9_10  and  C10_11 
ROOT
ATOM      1  C1  <0> d   1      -5.415   0.294   0.262  0.00  0.00     0.054 C 
ATOM      2  C2  <0> d   1      -4.736  -1.050   0.323  0.00  0.00     0.009 A 
ATOM      3  C3  <0> d   1      -5.492  -2.204   0.445  0.00  0.00     0.116 A 
ATOM      4  C4  <0> d   1      -4.877  -3.451   0.502  0.00  0.00     0.041 A 
ATOM      5  C5  <0> d   1      -3.516  -3.549   0.438  0.00  0.00     0.021 A 
ATOM      6  C6  <0> d   1      -2.741  -2.395   0.315  0.00  0.00     0.051 A 
ATOM      7  C7  <0> d   1      -3.351  -1.131   0.256  0.00  0.00     0.099 A 
ATOM      8  O1  <0> d   1      -2.405  -0.173   0.139  0.00  0.00    -0.305 OA
ATOM      9  C8  <0> d   1      -1.157  -0.699   0.112  0.00  0.00     0.127 A 
ATOM     10  C9  <0> d   1       0.002  -0.004   0.002  0.00  0.00     0.053 C 
ATOM     11  C16 <0> d   1      -1.289  -2.161   0.216  0.00  0.00     0.218 A 
ATOM     12  O2  <0> d   1      -0.398  -2.991   0.223  0.00  0.00    -0.284 OA
ATOM     13  O3  <0> d   1      -6.846  -2.118   0.509  0.00  0.00    -0.192 OA
ENDROOT
BRANCH  10  14
ATOM     14  C10 <0> d   1      -0.017   1.466   0.015  0.00  0.00    -0.030 A 
ATOM     15  C15 <0> d   1       1.183   2.184   0.036  0.00  0.00     0.053 A 
ATOM     16  C14 <0> d   1       1.155   3.565   0.044  0.00  0.00     0.117 A 
ATOM     17  C13 <0> d   1      -0.057   4.237   0.040  0.00  0.00     0.042 A 
ATOM     18  F1  <0> d   1       2.312   4.263   0.060  0.00  0.00    -0.206 F 
ATOM     19  C12 <0> d   1      -1.248   3.531   0.024  0.00  0.00     0.004 A 
ATOM     20  C11 <0> d   1      -1.237   2.153   0.011  0.00  0.00     0.011 A 
ENDBRANCH  10  14
TORSDOF 1
