REMARK  9 active torsions:
REMARK  status: ('A' for Active; 'I' for Inactive)
REMARK    1  A    between atoms: C4_4  and  O7_40 
REMARK    2  A    between atoms: C5_5  and  C20_25 
REMARK    3  A    between atoms: C10_11  and  C11_12 
REMARK    4  A    between atoms: C13_14  and  O4_22 
REMARK    5  A    between atoms: C14_15  and  O3_20 
REMARK    6  A    between atoms: C15_16  and  O2_18 
REMARK    7  A    between atoms: C20_25  and  N1_26 
REMARK    8  A    between atoms: N2_29  and  C25_32 
REMARK    9  A    between atoms: C28_35  and  O6_38 
ROOT
ATOM      1  C1  <0> d   1       1.293   1.271   0.016  0.00  0.00     0.049 C 
ATOM      2  C2  <0> d   1       0.869  -0.175   0.019  0.00  0.00    -0.042 A 
ATOM      3  C3  <0> d   1       0.762  -0.860  -1.159  0.00  0.00     0.045 A 
ATOM      4  C4  <0> d   1       0.371  -2.196  -1.158  0.00  0.00     0.077 A 
ATOM      5  C5  <0> d   1       0.086  -2.846   0.032  0.00  0.00     0.038 A 
ATOM      6  C6  <0> d   1       0.190  -2.165   1.238  0.00  0.00     0.102 A 
ATOM      7  C7  <0> d   1       0.591  -0.819   1.225  0.00  0.00     0.057 A 
ATOM      8  C8  <0> d   1       0.615  -0.380   2.632  0.00  0.00     0.219 A 
ATOM      9  O1  <0> d   1       0.905   0.723   3.064  0.00  0.00    -0.284 OA
ATOM     10  C9  <0> d   1       0.209  -1.568   3.397  0.00  0.00     0.128 A 
ATOM     11  C10 <0> d   1       0.085  -1.649   4.746  0.00  0.00     0.053 C 
ATOM     12  O5  <0> d   1      -0.028  -2.563   2.510  0.00  0.00    -0.305 OA
ENDROOT
BRANCH   5  13
ATOM     13  C20 <0> d   1      -0.337  -4.293   0.017  0.00  0.00     0.317 C 
BRANCH  13  14
ATOM     14  N1  <0> d   1       0.851  -5.151   0.117  0.00  0.00     0.096 N 
ATOM     15  C24 <0> d   1       0.471  -6.552   0.344  0.00  0.00     0.292 C 
ATOM     16  C23 <0> d   1       1.729  -7.381   0.622  0.00  0.00     0.153 C 
ATOM     17  N2  <0> d   1       2.683  -7.166  -0.476  0.00  0.00    -0.378 N 
ATOM     18  C22 <0> d   1       3.009  -5.782  -0.854  0.00  0.00     0.153 C 
ATOM     19  C21 <0> d   1       1.700  -5.016  -1.074  0.00  0.00     0.292 C 
BRANCH  17  20
ATOM     20  C25 <0> d   1       3.264  -8.248  -1.145  0.00  0.00     0.030 A 
ATOM     21  C30 <0> d   1       2.856  -9.544  -0.856  0.00  0.00     0.032 A 
ATOM     22  C29 <0> d   1       3.426 -10.612  -1.521  0.00  0.00     0.039 A 
ATOM     23  C28 <0> d   1       4.415 -10.391  -2.468  0.00  0.00     0.068 A 
ATOM     24  C27 <0> d   1       4.827  -9.098  -2.754  0.00  0.00     0.039 A 
ATOM     25  C26 <0> d   1       4.254  -8.029  -2.094  0.00  0.00     0.032 A 
BRANCH  23  26
ATOM     26  O6  <0> d   1       4.981 -11.444  -3.118  0.00  0.00    -0.356 OA
ATOM     27  C31 <0> d   1       4.508 -12.748  -2.775  0.00  0.00     0.210 C 
ENDBRANCH  23  26
ENDBRANCH  17  20
ENDBRANCH  13  14
ENDBRANCH   5  13
BRANCH   4  28
ATOM     28  O7  <0> d   1       0.267  -2.867  -2.334  0.00  0.00    -0.360 OA
ATOM     29  H34 <0> d   1       1.083  -3.309  -2.607  0.00  0.00     0.217 HD
ENDBRANCH   4  28
BRANCH  11  30
ATOM     30  C11 <0> d   1       0.186  -0.436   5.567  0.00  0.00    -0.028 A 
ATOM     31  C16 <0> d   1       0.909  -0.459   6.766  0.00  0.00     0.051 A 
ATOM     32  C15 <0> d   1       1.006   0.686   7.534  0.00  0.00     0.105 A 
ATOM     33  C14 <0> d   1       0.378   1.859   7.121  0.00  0.00     0.135 A 
ATOM     34  C13 <0> d   1      -0.346   1.884   5.931  0.00  0.00     0.105 A 
ATOM     35  C12 <0> d   1      -0.444   0.745   5.155  0.00  0.00     0.051 A 
BRANCH  32  36
ATOM     36  O2  <0> d   1       1.712   0.667   8.696  0.00  0.00    -0.353 OA
ATOM     37  C17 <0> d   1       2.331  -0.569   9.059  0.00  0.00     0.210 C 
ENDBRANCH  32  36
BRANCH  33  38
ATOM     38  O3  <0> d   1       0.472   2.982   7.881  0.00  0.00    -0.351 OA
ATOM     39  C18 <0> d   1      -0.535   3.178   8.876  0.00  0.00     0.210 C 
ENDBRANCH  33  38
BRANCH  34  40
ATOM     40  O4  <0> d   1      -0.958   3.031   5.532  0.00  0.00    -0.353 OA
ATOM     41  C19 <0> d   1      -1.683   2.986   4.302  0.00  0.00     0.210 C 
ENDBRANCH  34  40
ENDBRANCH  11  30
TORSDOF 9
