REMARK  7 active torsions:
REMARK  status: ('A' for Active; 'I' for Inactive)
REMARK    1  A    between atoms: C3_3  and  C23_31 
REMARK    2  A    between atoms: C4_4  and  C5_8 
REMARK    3  A    between atoms: C8_11  and  O2_15 
REMARK    4  A    between atoms: O2_15  and  C11_16 
REMARK    5  A    between atoms: C11_16  and  C12_17 
REMARK    6  A    between atoms: C12_17  and  N3_18 
REMARK    7  A    between atoms: N4_21  and  C17_24 
ROOT
ATOM      1  C5  <0> d   1       0.258  -2.628   2.013  0.00  0.00     0.032 A 
ATOM      2  C6  <0> d   1      -0.068  -2.490   3.361  0.00  0.00     0.019 A 
ATOM      3  C7  <0> d   1      -0.151  -3.606   4.167  0.00  0.00     0.038 A 
ATOM      4  C8  <0> d   1       0.087  -4.869   3.639  0.00  0.00     0.071 A 
ATOM      5  C9  <0> d   1       0.411  -5.014   2.299  0.00  0.00     0.077 A 
ATOM      6  C10 <0> d   1       0.492  -3.900   1.481  0.00  0.00     0.122 A 
ATOM      7  O1  <0> d   1       0.804  -4.040   0.166  0.00  0.00    -0.191 OA
ENDROOT
BRANCH   4   8
ATOM      8  O2  <0> d   1       0.003  -5.964   4.438  0.00  0.00    -0.349 OA
BRANCH   8   9
ATOM      9  C11 <0> d   1       0.261  -7.232   3.831  0.00  0.00     0.203 C 
BRANCH   9  10
ATOM     10  C12 <0> d   1       0.120  -8.338   4.879  0.00  0.00     0.261 C 
BRANCH  10  11
ATOM     11  N3  <0> d   1      -1.268  -8.385   5.358  0.00  0.00    -0.066 N 
ATOM     12  C16 <0> d   1      -2.149  -8.800   4.259  0.00  0.00     0.254 C 
ATOM     13  C15 <0> d   1      -3.607  -8.740   4.724  0.00  0.00     0.150 C 
ATOM     14  N4  <0> d   1      -3.740  -9.546   5.947  0.00  0.00    -0.378 N 
ATOM     15  C14 <0> d   1      -2.788  -9.307   7.043  0.00  0.00     0.150 C 
ATOM     16  C13 <0> d   1      -1.368  -9.341   6.468  0.00  0.00     0.254 C 
ATOM     17  H29 <0> d   1      -1.542  -7.469   5.680  0.00  0.00     0.280 HD
BRANCH  14  18
ATOM     18  C17 <0> d   1      -4.744 -10.513   6.066  0.00  0.00     0.030 A 
ATOM     19  C22 <0> d   1      -5.556 -10.808   4.979  0.00  0.00     0.032 A 
ATOM     20  C21 <0> d   1      -6.544 -11.767   5.097  0.00  0.00     0.044 A 
ATOM     21  C20 <0> d   1      -6.731 -12.425   6.300  0.00  0.00     0.116 A 
ATOM     22  C19 <0> d   1      -5.926 -12.128   7.387  0.00  0.00     0.044 A 
ATOM     23  F1  <0> d   1      -7.701 -13.359   6.415  0.00  0.00    -0.206 F 
ATOM     24  C18 <0> d   1      -4.933 -11.174   7.272  0.00  0.00     0.032 A 
ENDBRANCH  14  18
ENDBRANCH  10  11
ENDBRANCH   9  10
ENDBRANCH   8   9
ENDBRANCH   4   8
BRANCH   1  25
ATOM     25  C4  <0> d   1       0.348  -1.430   1.145  0.00  0.00     0.103 A 
ATOM     26  C3  <0> d   1       1.035  -0.227   1.449  0.00  0.00     0.029 A 
ATOM     27  C2  <0> d   1       0.873   0.616   0.390  0.00  0.00     0.037 A 
ATOM     28  C1  <0> d   1       1.432   2.010   0.273  0.00  0.00     0.070 C 
ATOM     29  N2  <0> d   1       0.118  -0.018  -0.531  0.00  0.00    -0.281 N 
ATOM     30  N1  <0> d   1      -0.195  -1.293  -0.046  0.00  0.00    -0.173 NA
ATOM     31  H1  <0> d   1      -0.160   0.348  -1.385  0.00  0.00     0.189 HD
BRANCH  26  32
ATOM     32  C23 <0> d   1       1.793   0.060   2.691  0.00  0.00    -0.022 A 
ATOM     33  C28 <0> d   1       1.345   1.043   3.572  0.00  0.00     0.012 A 
ATOM     34  C27 <0> d   1       2.051   1.302   4.729  0.00  0.00     0.001 A 
ATOM     35  C26 <0> d   1       3.207   0.596   5.011  0.00  0.00     0.000 A 
ATOM     36  C25 <0> d   1       3.659  -0.377   4.137  0.00  0.00     0.001 A 
ATOM     37  C24 <0> d   1       2.958  -0.648   2.980  0.00  0.00     0.012 A 
ENDBRANCH  26  32
ENDBRANCH   1  25
TORSDOF 7
