REMARK  5 active torsions:
REMARK  status: ('A' for Active; 'I' for Inactive)
REMARK    1  A    between atoms: O1_2  and  C2_3 
REMARK    2  A    between atoms: C6_7  and  C11_14 
REMARK    3  A    between atoms: C11_14  and  N1_15 
REMARK    4  A    between atoms: N2_18  and  C16_21 
REMARK    5  A    between atoms: C16_21  and  C17_22 
ROOT
ATOM      1  N1  <0> d   1      -0.701   1.560   1.216  0.00  0.00     0.096 N 
ATOM      2  C12 <0> d   1      -0.013   1.086   0.008  0.00  0.00     0.300 C 
ATOM      3  C13 <0> d   1      -0.754   1.593  -1.231  0.00  0.00     0.265 C 
ATOM      4  N2  <0> d   1      -0.806   3.062  -1.200  0.00  0.00    -0.064 N 
ATOM      5  C14 <0> d   1      -1.495   3.536   0.008  0.00  0.00     0.265 C 
ATOM      6  C15 <0> d   1      -0.754   3.029   1.247  0.00  0.00     0.300 C 
ATOM      7  H25 <0> d   1       0.227   3.438  -1.172  0.00  0.00     0.280 HD
ENDROOT
BRANCH   1   8
ATOM      8  C11 <0> d   1      -0.062   1.031   2.429  0.00  0.00     0.312 C 
BRANCH   8   9
ATOM      9  C6  <0> d   1      -0.631   1.724   3.640  0.00  0.00    -0.011 A 
ATOM     10  C5  <0> d   1      -1.926   1.325   4.196  0.00  0.00     0.006 A 
ATOM     11  C4  <0> d   1      -2.665   0.282   3.625  0.00  0.00     0.017 A 
ATOM     12  C9  <0> d   1      -2.417   1.996   5.331  0.00  0.00     0.093 A 
ATOM     13  C3  <0> d   1      -3.866  -0.073   4.166  0.00  0.00     0.038 A 
ATOM     14  C2  <0> d   1      -4.359   0.592   5.287  0.00  0.00     0.070 A 
ATOM     15  C10 <0> d   1      -3.639   1.622   5.868  0.00  0.00     0.075 A 
ATOM     16  O3  <0> d   1      -1.698   2.998   5.882  0.00  0.00    -0.275 OA
ATOM     17  C8  <0> d   1      -0.513   3.372   5.374  0.00  0.00     0.288 A 
ATOM     18  C7  <0> d   1       0.041   2.739   4.242  0.00  0.00     0.092 A 
ATOM     19  O2  <0> d   1       0.100   4.281   5.905  0.00  0.00    -0.260 OA
BRANCH  14  20
ATOM     20  O1  <0> d   1      -5.556   0.227   5.814  0.00  0.00    -0.356 OA
ATOM     21  C1  <0> d   1      -6.250  -0.843   5.169  0.00  0.00     0.210 C 
ENDBRANCH  14  20
ENDBRANCH   8   9
ENDBRANCH   1   8
BRANCH   4  22
ATOM     22  C16 <0> d   1      -1.445   3.591  -2.413  0.00  0.00     0.273 C 
BRANCH  22  23
ATOM     23  C17 <0> d   1      -1.263   5.086  -2.464  0.00  0.00    -0.033 A 
ATOM     24  C22 <0> d   1      -0.155   5.627  -3.090  0.00  0.00     0.009 A 
ATOM     25  C21 <0> d   1       0.011   6.998  -3.138  0.00  0.00     0.001 A 
ATOM     26  C20 <0> d   1      -0.930   7.829  -2.559  0.00  0.00     0.000 A 
ATOM     27  C19 <0> d   1      -2.038   7.288  -1.933  0.00  0.00     0.001 A 
ATOM     28  C18 <0> d   1      -2.207   5.917  -1.890  0.00  0.00     0.009 A 
ENDBRANCH  22  23
ENDBRANCH   4  22
TORSDOF 5
