REMARK  8 active torsions:
REMARK  status: ('A' for Active; 'I' for Inactive)
REMARK    1  A    between atoms: C5_5  and  C19_23 
REMARK    2  A    between atoms: C10_11  and  C11_12 
REMARK    3  A    between atoms: C15_16  and  O3_20 
REMARK    4  A    between atoms: C16_17  and  O2_18 
REMARK    5  A    between atoms: C19_23  and  N1_24 
REMARK    6  A    between atoms: N2_27  and  C24_30 
REMARK    7  A    between atoms: C24_30  and  C25_31 
REMARK    8  A    between atoms: C25_31  and  O5_32 
ROOT
ATOM      1  C1  <0> d   1       2.546   0.568  -1.556  0.00  0.00     0.049 C 
ATOM      2  C2  <0> d   1       1.328   1.454  -1.492  0.00  0.00    -0.042 A 
ATOM      3  C3  <0> d   1       0.079   0.909  -1.586  0.00  0.00     0.048 A 
ATOM      4  C4  <0> d   1      -1.047   1.726  -1.532  0.00  0.00     0.118 A 
ATOM      5  C5  <0> d   1      -0.916   3.096  -1.373  0.00  0.00     0.039 A 
ATOM      6  C6  <0> d   1       0.347   3.667  -1.276  0.00  0.00     0.102 A 
ATOM      7  C7  <0> d   1       1.475   2.833  -1.337  0.00  0.00     0.057 A 
ATOM      8  C8  <0> d   1       2.650   3.714  -1.208  0.00  0.00     0.219 A 
ATOM      9  O1  <0> d   1       3.826   3.394  -1.211  0.00  0.00    -0.284 OA
ATOM     10  C9  <0> d   1       2.086   5.065  -1.076  0.00  0.00     0.128 A 
ATOM     11  C10 <0> d   1       2.789   6.217  -0.930  0.00  0.00     0.055 C 
ATOM     12  O4  <0> d   1       0.737   4.951  -1.125  0.00  0.00    -0.305 OA
ATOM     13  O6  <0> d   1      -2.283   1.175  -1.632  0.00  0.00    -0.191 OA
ENDROOT
BRANCH   5  14
ATOM     14  C19 <0> d   1      -2.144   3.968  -1.311  0.00  0.00     0.279 C 
BRANCH  14  15
ATOM     15  N1  <0> d   1      -2.505   4.402  -2.667  0.00  0.00    -0.064 N 
ATOM     16  C23 <0> d   1      -3.823   5.053  -2.678  0.00  0.00     0.265 C 
ATOM     17  C22 <0> d   1      -4.197   5.418  -4.116  0.00  0.00     0.300 C 
ATOM     18  N2  <0> d   1      -3.169   6.306  -4.676  0.00  0.00     0.093 N 
ATOM     19  C21 <0> d   1      -1.852   5.655  -4.665  0.00  0.00     0.300 C 
ATOM     20  C20 <0> d   1      -1.478   5.290  -3.227  0.00  0.00     0.265 C 
ATOM     21  H30 <0> d   1      -2.563   3.506  -3.303  0.00  0.00     0.280 HD
BRANCH  18  22
ATOM     22  C24 <0> d   1      -3.531   6.740  -6.032  0.00  0.00     0.298 C 
BRANCH  22  23
ATOM     23  C25 <0> d   1      -3.273   5.600  -7.019  0.00  0.00     0.194 C 
BRANCH  23  24
ATOM     24  O5  <0> d   1      -4.155   4.513  -6.731  0.00  0.00    -0.399 OA
ATOM     25  H29 <0> d   1      -4.116   3.597  -7.340  0.00  0.00     0.209 HD
ENDBRANCH  23  24
ENDBRANCH  22  23
ENDBRANCH  18  22
ENDBRANCH  14  15
ENDBRANCH   5  14
BRANCH  11  26
ATOM     26  C11 <0> d   1       2.088   7.506  -0.907  0.00  0.00     0.003 A 
ATOM     27  C16 <0> d   1       2.795   8.698  -1.125  0.00  0.00     0.111 A 
ATOM     28  C15 <0> d   1       2.120   9.913  -1.100  0.00  0.00     0.102 A 
ATOM     29  C14 <0> d   1       0.755   9.943  -0.861  0.00  0.00     0.040 A 
ATOM     30  C13 <0> d   1       0.056   8.766  -0.646  0.00  0.00     0.004 A 
ATOM     31  C12 <0> d   1       0.707   7.554  -0.672  0.00  0.00     0.014 A 
BRANCH  27  32
ATOM     32  O2  <0> d   1       4.133   8.666  -1.359  0.00  0.00    -0.352 OA
ATOM     33  C17 <0> d   1       4.551   8.552  -2.720  0.00  0.00     0.210 C 
ENDBRANCH  27  32
BRANCH  28  34
ATOM     34  O3  <0> d   1       2.798  11.073  -1.310  0.00  0.00    -0.353 OA
ATOM     35  C18 <0> d   1       2.041  12.284  -1.271  0.00  0.00     0.210 C 
ENDBRANCH  28  34
ENDBRANCH  11  26
TORSDOF 8
