REMARK  4 active torsions:
REMARK  status: ('A' for Active; 'I' for Inactive)
REMARK    1  A    between atoms: N2_5  and  C6_8 
REMARK    2  A    between atoms: C6_8  and  C7_9 
REMARK    3  A    between atoms: C8_10  and  O4_25 
REMARK    4  A    between atoms: C14_17  and  C15_18 
ROOT
ATOM      1  C7  <0> d   1       2.188  -4.533   1.006  0.00  0.00     0.038 A 
ATOM      2  C8  <0> d   1       3.529  -4.739   0.723  0.00  0.00     0.076 A 
ATOM      3  C9  <0> d   1       4.397  -5.197   1.710  0.00  0.00     0.038 A 
ATOM      4  C10 <0> d   1       3.935  -5.449   2.971  0.00  0.00     0.021 A 
ATOM      5  C11 <0> d   1       2.588  -5.246   3.269  0.00  0.00     0.051 A 
ATOM      6  C12 <0> d   1       1.704  -4.778   2.283  0.00  0.00     0.101 A 
ATOM      7  O1  <0> d   1       0.472  -4.659   2.824  0.00  0.00    -0.305 OA
ATOM      8  C13 <0> d   1       0.468  -5.015   4.129  0.00  0.00     0.129 A 
ATOM      9  C14 <0> d   1      -0.618  -5.006   4.955  0.00  0.00     0.078 C 
ATOM     10  C19 <0> d   1       1.783  -5.414   4.492  0.00  0.00     0.218 A 
ATOM     11  O3  <0> d   1       2.166  -5.800   5.584  0.00  0.00    -0.284 OA
ENDROOT
BRANCH   1  12
ATOM     12  C6  <0> d   1       1.257  -4.037  -0.071  0.00  0.00     0.317 C 
BRANCH  12  13
ATOM     13  N2  <0> d   1       1.237  -2.568  -0.063  0.00  0.00     0.096 N 
ATOM     14  C3  <0> d   1       0.533  -2.045  -1.242  0.00  0.00     0.303 C 
ATOM     15  C2  <0> d   1       0.603  -0.516  -1.238  0.00  0.00     0.302 C 
ATOM     16  N1  <0> d   1       0.002  -0.004   0.002  0.00  0.00     0.087 N 
ATOM     17  C1  <0> d   1      -0.018   1.465   0.010  0.00  0.00     0.310 C 
ATOM     18  C5  <0> d   1       0.706  -0.528   1.181  0.00  0.00     0.302 C 
ATOM     19  C4  <0> d   1       0.636  -2.057   1.176  0.00  0.00     0.303 C 
ENDBRANCH  12  13
ENDBRANCH   1  12
BRANCH   2  20
ATOM     20  O4  <0> d   1       3.999  -4.493  -0.526  0.00  0.00    -0.360 OA
ATOM     21  H20 <0> d   1       4.312  -3.587  -0.657  0.00  0.00     0.217 HD
ENDBRANCH   2  20
BRANCH   9  22
ATOM     22  C15 <0> d   1      -1.877  -4.598   4.461  0.00  0.00     0.077 A 
ATOM     23  O2  <0> d   1      -2.145  -4.194   3.201  0.00  0.00    -0.323 OA
ATOM     24  C18 <0> d   1      -3.446  -3.888   3.098  0.00  0.00     0.142 A 
ATOM     25  C17 <0> d   1      -4.041  -4.080   4.296  0.00  0.00     0.027 A 
ATOM     26  C16 <0> d   1      -3.054  -4.535   5.183  0.00  0.00     0.039 A 
ENDBRANCH   9  22
TORSDOF 4
