REMARK  4 active torsions:
REMARK  status: ('A' for Active; 'I' for Inactive)
REMARK    1  A    between atoms: N2_5  and  C6_8 
REMARK    2  A    between atoms: C6_8  and  C7_9 
REMARK    3  A    between atoms: C8_10  and  O4_29 
REMARK    4  A    between atoms: C14_17  and  C15_18 
ROOT
ATOM      1  C7  <0> d   1       4.205   0.267   2.455  0.00  0.00     0.038 A 
ATOM      2  C8  <0> d   1       5.325  -0.186   1.776  0.00  0.00     0.076 A 
ATOM      3  C9  <0> d   1       6.531   0.505   1.857  0.00  0.00     0.038 A 
ATOM      4  C10 <0> d   1       6.624   1.636   2.619  0.00  0.00     0.021 A 
ATOM      5  C11 <0> d   1       5.506   2.101   3.312  0.00  0.00     0.051 A 
ATOM      6  C12 <0> d   1       4.283   1.415   3.233  0.00  0.00     0.101 A 
ATOM      7  O1  <0> d   1       3.356   2.051   3.983  0.00  0.00    -0.305 OA
ATOM      8  C13 <0> d   1       3.865   3.150   4.586  0.00  0.00     0.129 A 
ATOM      9  C14 <0> d   1       3.189   4.003   5.407  0.00  0.00     0.078 C 
ATOM     10  C23 <0> d   1       5.277   3.257   4.198  0.00  0.00     0.218 A 
ATOM     11  O3  <0> d   1       6.080   4.111   4.533  0.00  0.00    -0.284 OA
ENDROOT
BRANCH   9  12
ATOM     12  C15 <0> d   1       1.823   3.773   5.695  0.00  0.00     0.079 A 
ATOM     13  O2  <0> d   1       1.086   2.747   5.218  0.00  0.00    -0.310 OA
ATOM     14  C22 <0> d   1      -0.175   2.829   5.691  0.00  0.00     0.086 A 
ATOM     15  C17 <0> d   1      -0.246   3.969   6.514  0.00  0.00     0.000 A 
ATOM     16  C21 <0> d   1      -1.308   2.046   5.515  0.00  0.00     0.038 A 
ATOM     17  C16 <0> d   1       1.047   4.551   6.503  0.00  0.00     0.051 A 
ATOM     18  C18 <0> d   1      -1.451   4.301   7.143  0.00  0.00     0.014 A 
ATOM     19  C19 <0> d   1      -2.553   3.515   6.955  0.00  0.00     0.001 A 
ATOM     20  C20 <0> d   1      -2.486   2.390   6.145  0.00  0.00     0.003 A 
ENDBRANCH   9  12
BRANCH   1  21
ATOM     21  C6  <0> d   1       2.905  -0.488   2.352  0.00  0.00     0.317 C 
BRANCH  21  22
ATOM     22  N2  <0> d   1       2.123   0.034   1.224  0.00  0.00     0.096 N 
ATOM     23  C3  <0> d   1       2.103   1.504   1.232  0.00  0.00     0.300 C 
ATOM     24  C2  <0> d   1       1.348   2.008  -0.000  0.00  0.00     0.264 C 
ATOM     25  N1  <0> d   1      -0.018   1.465   0.010  0.00  0.00    -0.072 N 
ATOM     26  C1  <0> d   1      -0.800   1.987  -1.118  0.00  0.00     0.269 C 
ATOM     27  C5  <0> d   1       0.002  -0.004   0.002  0.00  0.00     0.264 C 
ATOM     28  H23 <0> d   1      -0.507   1.793   0.939  0.00  0.00     0.279 HD
ATOM     29  C4  <0> d   1       0.757  -0.508   1.234  0.00  0.00     0.300 C 
ENDBRANCH  21  22
ENDBRANCH   1  21
BRANCH   2  30
ATOM     30  O4  <0> d   1       5.245  -1.311   1.021  0.00  0.00    -0.360 OA
ATOM     31  H22 <0> d   1       6.131  -1.676   0.481  0.00  0.00     0.217 HD
ENDBRANCH   2  30
TORSDOF 4
