REMARK  7 active torsions:
REMARK  status: ('A' for Active; 'I' for Inactive)
REMARK    1  A    between atoms: C2_2  and  N1_3 
REMARK    2  A    between atoms: N2_6  and  C7_9 
REMARK    3  A    between atoms: C7_9  and  C8_10 
REMARK    4  A    between atoms: C9_11  and  O5_32 
REMARK    5  A    between atoms: C15_19  and  C18_22 
REMARK    6  A    between atoms: C20_24  and  O4_30 
REMARK    7  A    between atoms: C23_27  and  O3_28 
ROOT
ATOM      1  C8  <0> d   1      -4.136   2.461   2.384  0.00  0.00     0.038 A 
ATOM      2  C9  <0> d   1      -4.855   2.226   1.223  0.00  0.00     0.076 A 
ATOM      3  C10 <0> d   1      -4.211   1.775   0.073  0.00  0.00     0.038 A 
ATOM      4  C11 <0> d   1      -2.864   1.561   0.075  0.00  0.00     0.017 A 
ATOM      5  C12 <0> d   1      -2.118   1.799   1.239  0.00  0.00     0.006 A 
ATOM      6  C13 <0> d   1      -2.765   2.248   2.405  0.00  0.00     0.101 A 
ATOM      7  O1  <0> d   1      -2.065   2.477   3.537  0.00  0.00    -0.273 OA
ATOM      8  C14 <0> d   1      -0.737   2.280   3.586  0.00  0.00     0.300 A 
ATOM      9  O2  <0> d   1      -0.129   2.493   4.619  0.00  0.00    -0.259 OA
ATOM     10  C15 <0> d   1      -0.018   1.807   2.400  0.00  0.00     0.059 A 
ATOM     11  C16 <0> d   1      -0.718   1.572   1.248  0.00  0.00    -0.032 A 
ATOM     12  C17 <0> d   1      -0.013   1.086   0.008  0.00  0.00     0.050 C 
ENDROOT
BRANCH  10  13
ATOM     13  C18 <0> d   1       1.447   1.587   2.447  0.00  0.00     0.017 A 
ATOM     14  C23 <0> d   1       1.958   0.338   2.814  0.00  0.00     0.079 A 
ATOM     15  C22 <0> d   1       3.328   0.139   2.857  0.00  0.00     0.040 A 
ATOM     16  C21 <0> d   1       4.189   1.171   2.537  0.00  0.00     0.039 A 
ATOM     17  C20 <0> d   1       3.688   2.413   2.171  0.00  0.00     0.069 A 
ATOM     18  C19 <0> d   1       2.320   2.623   2.120  0.00  0.00     0.052 A 
BRANCH  14  19
ATOM     19  O3  <0> d   1       1.112  -0.678   3.129  0.00  0.00    -0.355 OA
ATOM     20  C24 <0> d   1       1.704  -1.926   3.494  0.00  0.00     0.210 C 
ENDBRANCH  14  19
BRANCH  17  21
ATOM     21  O4  <0> d   1       4.542   3.424   1.858  0.00  0.00    -0.356 OA
ATOM     22  C25 <0> d   1       5.940   3.137   1.926  0.00  0.00     0.210 C 
ENDBRANCH  17  21
ENDBRANCH  10  13
BRANCH   1  23
ATOM     23  C7  <0> d   1      -4.843   2.948   3.623  0.00  0.00     0.317 C 
BRANCH  23  24
ATOM     24  N2  <0> d   1      -4.863   4.417   3.629  0.00  0.00     0.096 N 
ATOM     25  C4  <0> d   1      -5.743   4.927   4.690  0.00  0.00     0.303 C 
ATOM     26  C3  <0> d   1      -5.798   6.455   4.612  0.00  0.00     0.302 C 
ATOM     27  N1  <0> d   1      -4.440   6.999   4.751  0.00  0.00     0.091 N 
ATOM     28  C6  <0> d   1      -3.561   6.489   3.691  0.00  0.00     0.302 C 
ATOM     29  C5  <0> d   1      -3.505   4.962   3.768  0.00  0.00     0.303 C 
BRANCH  27  30
ATOM     30  C2  <0> d   1      -4.460   8.468   4.758  0.00  0.00     0.268 C 
ATOM     31  C1  <0> d   1      -3.079   8.995   5.151  0.00  0.00     0.037 C 
ENDBRANCH  27  30
ENDBRANCH  23  24
ENDBRANCH   1  23
BRANCH   2  32
ATOM     32  O5  <0> d   1      -6.196   2.435   1.207  0.00  0.00    -0.360 OA
ATOM     33  H30 <0> d   1      -6.770   2.250   0.287  0.00  0.00     0.217 HD
ENDBRANCH   2  32
TORSDOF 7
