REMARK  5 active torsions:
REMARK  status: ('A' for Active; 'I' for Inactive)
REMARK    1  A    between atoms: O1_2  and  C2_3 
REMARK    2  A    between atoms: C7_8  and  C8_9 
REMARK    3  A    between atoms: C16_19  and  C17_20 
REMARK    4  A    between atoms: C17_20  and  N1_21 
REMARK    5  A    between atoms: C22_26  and  C23_27 
ROOT
ATOM      1  C8  <0> d   1      -2.385  -2.498   2.939  0.00  0.00     0.050 A 
ATOM      2  C9  <0> d   1      -1.912  -2.449   1.667  0.00  0.00     0.159 A 
ATOM      3  O2  <0> d   1      -1.203  -1.416   1.203  0.00  0.00    -0.320 OA
ATOM      4  C10 <0> d   1      -0.894  -0.337   1.948  0.00  0.00     0.100 A 
ATOM      5  C11 <0> d   1      -1.319  -0.253   3.286  0.00  0.00     0.050 A 
ATOM      6  C12 <0> d   1      -2.105  -1.369   3.842  0.00  0.00     0.198 A 
ATOM      7  O3  <0> d   1      -2.503  -1.358   4.994  0.00  0.00    -0.286 OA
ATOM      8  C13 <0> d   1      -1.001   0.865   4.059  0.00  0.00     0.021 A 
ATOM      9  C14 <0> d   1      -0.273   1.882   3.512  0.00  0.00     0.041 A 
ATOM     10  C15 <0> d   1       0.159   1.806   2.189  0.00  0.00     0.118 A 
ATOM     11  C16 <0> d   1      -0.154   0.707   1.408  0.00  0.00     0.039 A 
ATOM     12  O4  <0> d   1       0.887   2.822   1.660  0.00  0.00    -0.191 OA
ENDROOT
BRANCH  11  13
ATOM     13  C17 <0> d   1       0.313   0.639  -0.023  0.00  0.00     0.280 C 
BRANCH  13  14
ATOM     14  N1  <0> d   1      -0.631   1.367  -0.881  0.00  0.00    -0.059 N 
ATOM     15  C22 <0> d   1      -0.152   1.417  -2.268  0.00  0.00     0.223 C 
ATOM     16  C21 <0> d   1      -1.082   2.302  -3.100  0.00  0.00     0.038 C 
ATOM     17  C20 <0> d   1      -2.502   1.729  -3.052  0.00  0.00     0.004 C 
ATOM     18  C19 <0> d   1      -2.959   1.643  -1.593  0.00  0.00     0.028 C 
ATOM     19  C18 <0> d   1      -1.974   0.777  -0.805  0.00  0.00     0.236 C 
ATOM     20  H26 <0> d   1      -0.698   2.401  -0.513  0.00  0.00     0.281 HD
BRANCH  15  21
ATOM     21  C23 <0> d   1       1.243   1.987  -2.297  0.00  0.00    -0.010 A 
ATOM     22  C27 <0> d   1       1.541   3.140  -1.596  0.00  0.00     0.125 A 
ATOM     23  N2  <0> d   1       2.761   3.642  -1.612  0.00  0.00    -0.273 NA
ATOM     24  C26 <0> d   1       3.734   3.078  -2.300  0.00  0.00     0.116 A 
ATOM     25  C25 <0> d   1       3.509   1.927  -3.030  0.00  0.00     0.020 A 
ATOM     26  C24 <0> d   1       2.241   1.366  -3.033  0.00  0.00     0.012 A 
ENDBRANCH  15  21
ENDBRANCH  13  14
ENDBRANCH  11  13
BRANCH   1  27
ATOM     27  C7  <0> d   1      -3.167  -3.667   3.409  0.00  0.00     0.013 A 
ATOM     28  C2  <0> d   1      -4.508  -3.513   3.773  0.00  0.00     0.079 A 
ATOM     29  C3  <0> d   1      -5.233  -4.611   4.208  0.00  0.00     0.037 A 
ATOM     30  C4  <0> d   1      -4.628  -5.851   4.290  0.00  0.00     0.003 A 
ATOM     31  C5  <0> d   1      -3.300  -6.005   3.936  0.00  0.00     0.001 A 
ATOM     32  C6  <0> d   1      -2.567  -4.921   3.497  0.00  0.00     0.015 A 
BRANCH  28  33
ATOM     33  O1  <0> d   1      -5.100  -2.293   3.696  0.00  0.00    -0.355 OA
ATOM     34  C1  <0> d   1      -6.473  -2.212   4.084  0.00  0.00     0.210 C 
ENDBRANCH  28  33
ENDBRANCH   1  27
TORSDOF 5
