REMARK  8 active torsions:
REMARK  status: ('A' for Active; 'I' for Inactive)
REMARK    1  A    between atoms: C3_3  and  O3_20 
REMARK    2  A    between atoms: C4_4  and  C5_8 
REMARK    3  A    between atoms: C8_11  and  O2_15 
REMARK    4  A    between atoms: C10_13  and  O1_14 
REMARK    5  A    between atoms: O2_15  and  C11_16 
REMARK    6  A    between atoms: C11_16  and  C12_17 
REMARK    7  A    between atoms: O3_20  and  C15_21 
REMARK    8  A    between atoms: C20_26  and  O4_27 
ROOT
ATOM      1  C1  <0> d   1      -0.018   1.503   0.010  0.00  0.00     0.073 C 
ATOM      2  C2  <0> d   1       0.002  -0.004   0.002  0.00  0.00     0.060 A 
ATOM      3  C3  <0> d   1       0.008  -0.796  -1.097  0.00  0.00     0.131 A 
ATOM      4  C4  <0> d   1       0.029  -2.138  -0.661  0.00  0.00     0.125 A 
ATOM      5  N1  <0> d   1       0.035  -2.140   0.655  0.00  0.00    -0.171 NA
ATOM      6  N2  <0> d   1       0.024  -0.811   1.096  0.00  0.00    -0.279 N 
ATOM      7  H1  <0> d   1       0.029  -0.517   2.020  0.00  0.00     0.189 HD
ENDROOT
BRANCH   4   8
ATOM      8  C5  <0> d   1       0.041  -3.337  -1.534  0.00  0.00     0.030 A 
ATOM      9  C10 <0> d   1       0.062  -4.616  -0.969  0.00  0.00     0.081 A 
ATOM     10  C9  <0> d   1       0.068  -5.731  -1.789  0.00  0.00     0.074 A 
ATOM     11  C8  <0> d   1       0.065  -5.579  -3.168  0.00  0.00     0.071 A 
ATOM     12  C7  <0> d   1       0.051  -4.309  -3.730  0.00  0.00     0.038 A 
ATOM     13  C6  <0> d   1       0.038  -3.192  -2.920  0.00  0.00     0.019 A 
BRANCH   9  14
ATOM     14  O1  <0> d   1       0.070  -4.764   0.382  0.00  0.00    -0.360 OA
ATOM     15  H8  <0> d   1      -0.811  -4.819   0.777  0.00  0.00     0.217 HD
ENDBRANCH   9  14
BRANCH  11  16
ATOM     16  O2  <0> d   1       0.076  -6.675  -3.971  0.00  0.00    -0.347 OA
BRANCH  16  17
ATOM     17  C11 <0> d   1       0.072  -6.446  -5.381  0.00  0.00     0.208 C 
BRANCH  17  18
ATOM     18  C12 <0> d   1       0.086  -7.767  -6.105  0.00  0.00    -0.069 C 
ATOM     19  C13 <0> d   1       0.099  -8.887  -5.424  0.00  0.00     0.016 C 
ATOM     20  C14 <0> d   1       0.084  -7.802  -7.612  0.00  0.00     0.044 C 
ENDBRANCH  17  18
ENDBRANCH  16  17
ENDBRANCH  11  16
ENDBRANCH   4   8
BRANCH   3  21
ATOM     21  O3  <0> d   1      -0.004  -0.372  -2.391  0.00  0.00    -0.303 OA
BRANCH  21  22
ATOM     22  C15 <0> d   1       1.190  -0.157  -3.003  0.00  0.00     0.109 A 
ATOM     23  C20 <0> d   1       1.228   0.276  -4.325  0.00  0.00     0.102 A 
ATOM     24  C19 <0> d   1       2.448   0.500  -4.943  0.00  0.00     0.039 A 
ATOM     25  C18 <0> d   1       3.624   0.281  -4.251  0.00  0.00     0.003 A 
ATOM     26  C17 <0> d   1       3.587  -0.155  -2.939  0.00  0.00     0.003 A 
ATOM     27  C16 <0> d   1       2.373  -0.374  -2.314  0.00  0.00     0.040 A 
BRANCH  23  28
ATOM     28  O4  <0> d   1       0.070   0.485  -5.007  0.00  0.00    -0.353 OA
ATOM     29  C21 <0> d   1       0.185   0.929  -6.361  0.00  0.00     0.210 C 
ENDBRANCH  23  28
ENDBRANCH  21  22
ENDBRANCH   3  21
TORSDOF 8
