REMARK  8 active torsions:
REMARK  status: ('A' for Active; 'I' for Inactive)
REMARK    1  A    between atoms: O1_2  and  C2_3 
REMARK    2  A    between atoms: C7_8  and  C8_9 
REMARK    3  A    between atoms: C14_16  and  C18_24 
REMARK    4  A    between atoms: C16_19  and  C17_20 
REMARK    5  A    between atoms: C18_24  and  N1_25 
REMARK    6  A    between atoms: N2_28  and  C23_31 
REMARK    7  A    between atoms: C23_31  and  C24_32 
REMARK    8  A    between atoms: C24_32  and  O4_33 
ROOT
ATOM      1  C8  <0> d   1      -2.454   4.209  -0.034  0.00  0.00     0.067 A 
ATOM      2  C9  <0> d   1      -1.115   4.821   0.000  0.00  0.00     0.198 A 
ATOM      3  O2  <0> d   1      -0.965   6.031   0.014  0.00  0.00    -0.286 OA
ATOM      4  C10 <0> d   1       0.036   3.901   0.016  0.00  0.00     0.050 A 
ATOM      5  C11 <0> d   1       1.347   4.380   0.049  0.00  0.00     0.021 A 
ATOM      6  C12 <0> d   1       2.390   3.499   0.064  0.00  0.00     0.041 A 
ATOM      7  C13 <0> d   1       2.152   2.127   0.046  0.00  0.00     0.118 A 
ATOM      8  C14 <0> d   1       0.858   1.636   0.013  0.00  0.00     0.039 A 
ATOM      9  C15 <0> d   1      -0.215   2.517  -0.008  0.00  0.00     0.101 A 
ATOM     10  O3  <0> d   1      -1.481   2.056  -0.033  0.00  0.00    -0.303 OA
ATOM     11  C16 <0> d   1      -2.551   2.854  -0.049  0.00  0.00     0.174 A 
ATOM     12  O5  <0> d   1       3.199   1.262   0.061  0.00  0.00    -0.191 OA
ENDROOT
BRANCH   8  13
ATOM     13  C18 <0> d   1       0.615   0.149  -0.006  0.00  0.00     0.279 C 
BRANCH  13  14
ATOM     14  N1  <0> d   1       0.505  -0.348   1.372  0.00  0.00    -0.064 N 
ATOM     15  C22 <0> d   1       0.035  -1.740   1.395  0.00  0.00     0.265 C 
ATOM     16  C21 <0> d   1      -0.141  -2.192   2.846  0.00  0.00     0.300 C 
ATOM     17  N2  <0> d   1       1.138  -2.060   3.557  0.00  0.00     0.093 N 
ATOM     18  C20 <0> d   1       1.609  -0.668   3.534  0.00  0.00     0.300 C 
ATOM     19  C19 <0> d   1       1.785  -0.215   2.083  0.00  0.00     0.265 C 
ATOM     20  H25 <0> d   1      -0.239   0.271   1.895  0.00  0.00     0.280 HD
BRANCH  17  21
ATOM     21  C23 <0> d   1       1.029  -2.556   4.935  0.00  0.00     0.298 C 
BRANCH  21  22
ATOM     22  C24 <0> d   1       1.020  -4.086   4.927  0.00  0.00     0.194 C 
BRANCH  22  23
ATOM     23  O4  <0> d   1       2.275  -4.568   4.443  0.00  0.00    -0.399 OA
ATOM     24  H24 <0> d   1       2.456  -5.650   4.365  0.00  0.00     0.209 HD
ENDBRANCH  22  23
ENDBRANCH  21  22
ENDBRANCH  17  21
ENDBRANCH  13  14
ENDBRANCH   8  13
BRANCH  11  25
ATOM     25  C17 <0> d   1      -3.921   2.227  -0.084  0.00  0.00     0.440 C 
ATOM     26  F1  <0> d   1      -4.317   2.046  -1.414  0.00  0.00    -0.164 F 
ATOM     27  F2  <0> d   1      -3.884   0.989   0.565  0.00  0.00    -0.164 F 
ATOM     28  F3  <0> d   1      -4.835   3.066   0.564  0.00  0.00    -0.164 F 
ENDBRANCH  11  25
BRANCH   1  29
ATOM     29  C7  <0> d   1      -3.672   5.055  -0.053  0.00  0.00     0.014 A 
ATOM     30  C2  <0> d   1      -4.274   5.445   1.147  0.00  0.00     0.079 A 
ATOM     31  C3  <0> d   1      -5.412   6.235   1.120  0.00  0.00     0.037 A 
ATOM     32  C4  <0> d   1      -5.948   6.637  -0.089  0.00  0.00     0.003 A 
ATOM     33  C5  <0> d   1      -5.353   6.253  -1.278  0.00  0.00     0.001 A 
ATOM     34  C6  <0> d   1      -4.217   5.469  -1.266  0.00  0.00     0.015 A 
BRANCH  30  35
ATOM     35  O1  <0> d   1      -3.747   5.050   2.335  0.00  0.00    -0.355 OA
ATOM     36  C1  <0> d   1      -4.416   5.486   3.519  0.00  0.00     0.210 C 
ENDBRANCH  30  35
ENDBRANCH   1  29
TORSDOF 8
