REMARK  7 active torsions:
REMARK  status: ('A' for Active; 'I' for Inactive)
REMARK    1  A    between atoms: O1_2  and  C2_3 
REMARK    2  A    between atoms: C5_6  and  N1_9 
REMARK    3  A    between atoms: N2_12  and  C12_15 
REMARK    4  A    between atoms: C12_15  and  C13_16 
REMARK    5  A    between atoms: C20_24  and  C21_25 
REMARK    6  A    between atoms: C25_29  and  O4_33 
REMARK    7  A    between atoms: C26_30  and  O3_31 
ROOT
ATOM      1  C13 <0> d   1       7.578  -6.231   6.564  0.00  0.00     0.041 A 
ATOM      2  C14 <0> d   1       7.531  -6.497   7.923  0.00  0.00     0.118 A 
ATOM      3  C15 <0> d   1       6.923  -7.656   8.396  0.00  0.00     0.041 A 
ATOM      4  C16 <0> d   1       6.365  -8.545   7.521  0.00  0.00     0.021 A 
ATOM      5  C17 <0> d   1       6.406  -8.290   6.150  0.00  0.00     0.051 A 
ATOM      6  C18 <0> d   1       7.011  -7.121   5.661  0.00  0.00     0.101 A 
ATOM      7  O2  <0> d   1       6.920  -7.092   4.314  0.00  0.00    -0.305 OA
ATOM      8  C19 <0> d   1       6.276  -8.179   3.828  0.00  0.00     0.128 A 
ATOM      9  C20 <0> d   1       6.024  -8.445   2.521  0.00  0.00     0.055 C 
ATOM     10  C29 <0> d   1       5.911  -9.027   4.973  0.00  0.00     0.218 A 
ATOM     11  O5  <0> d   1       5.320 -10.092   4.953  0.00  0.00    -0.284 OA
ATOM     12  O6  <0> d   1       8.082  -5.620   8.800  0.00  0.00    -0.191 OA
ENDROOT
BRANCH   1  13
ATOM     13  C12 <0> d   1       8.240  -4.972   6.065  0.00  0.00     0.317 C 
BRANCH  13  14
ATOM     14  N2  <0> d   1       7.247  -3.890   5.998  0.00  0.00     0.096 N 
ATOM     15  C9  <0> d   1       7.895  -2.596   5.746  0.00  0.00     0.292 C 
ATOM     16  C8  <0> d   1       6.855  -1.477   5.864  0.00  0.00     0.153 C 
ATOM     17  N1  <0> d   1       5.727  -1.792   4.974  0.00  0.00    -0.378 N 
ATOM     18  C11 <0> d   1       5.109  -3.122   5.078  0.00  0.00     0.153 C 
ATOM     19  C10 <0> d   1       6.221  -4.179   4.987  0.00  0.00     0.292 C 
BRANCH  17  20
ATOM     20  C5  <0> d   1       5.251  -0.848   4.057  0.00  0.00     0.030 A 
ATOM     21  C4  <0> d   1       4.257  -1.199   3.153  0.00  0.00     0.032 A 
ATOM     22  C3  <0> d   1       3.787  -0.267   2.248  0.00  0.00     0.039 A 
ATOM     23  C2  <0> d   1       4.308   1.019   2.243  0.00  0.00     0.068 A 
ATOM     24  C7  <0> d   1       5.305   1.368   3.142  0.00  0.00     0.039 A 
ATOM     25  C6  <0> d   1       5.771   0.439   4.051  0.00  0.00     0.032 A 
BRANCH  23  26
ATOM     26  O1  <0> d   1       3.845   1.936   1.351  0.00  0.00    -0.356 OA
ATOM     27  C1  <0> d   1       2.817   1.508   0.455  0.00  0.00     0.210 C 
ENDBRANCH  23  26
ENDBRANCH  17  20
ENDBRANCH  13  14
ENDBRANCH   1  13
BRANCH   9  28
ATOM     28  C21 <0> d   1       6.331  -7.441   1.496  0.00  0.00     0.003 A 
ATOM     29  C26 <0> d   1       6.371  -7.805   0.141  0.00  0.00     0.111 A 
ATOM     30  C25 <0> d   1       6.657  -6.843  -0.821  0.00  0.00     0.102 A 
ATOM     31  C24 <0> d   1       6.913  -5.536  -0.440  0.00  0.00     0.040 A 
ATOM     32  C23 <0> d   1       6.880  -5.176   0.898  0.00  0.00     0.004 A 
ATOM     33  C22 <0> d   1       6.592  -6.114   1.864  0.00  0.00     0.014 A 
BRANCH  29  34
ATOM     34  O3  <0> d   1       6.125  -9.088  -0.229  0.00  0.00    -0.352 OA
ATOM     35  C27 <0> d   1       4.768  -9.432  -0.514  0.00  0.00     0.210 C 
ENDBRANCH  29  34
BRANCH  30  36
ATOM     36  O4  <0> d   1       6.691  -7.186  -2.137  0.00  0.00    -0.353 OA
ATOM     37  C28 <0> d   1       6.997  -6.148  -3.070  0.00  0.00     0.210 C 
ENDBRANCH  30  36
ENDBRANCH   9  28
TORSDOF 7
