REMARK  10 active torsions:
REMARK  status: ('A' for Active; 'I' for Inactive)
REMARK    1  A    between atoms: C3_3  and  C24_31 
REMARK    2  A    between atoms: C4_4  and  C5_8 
REMARK    3  A    between atoms: C8_11  and  O2_15 
REMARK    4  A    between atoms: C10_13  and  O1_14 
REMARK    5  A    between atoms: O2_15  and  C11_16 
REMARK    6  A    between atoms: C11_16  and  C12_17 
REMARK    7  A    between atoms: C12_17  and  N3_18 
REMARK    8  A    between atoms: N4_21  and  C17_24 
REMARK    9  A    between atoms: C17_24  and  C18_25 
REMARK   10  A    between atoms: C27_34  and  O3_37 
ROOT
ATOM      1  C5  <0> d   1      -1.026   2.709  -4.715  0.00  0.00     0.026 A 
ATOM      2  C6  <0> d   1      -1.277   4.030  -5.091  0.00  0.00     0.019 A 
ATOM      3  C7  <0> d   1      -1.141   4.408  -6.409  0.00  0.00     0.038 A 
ATOM      4  C8  <0> d   1      -0.754   3.478  -7.367  0.00  0.00     0.071 A 
ATOM      5  C9  <0> d   1      -0.503   2.163  -7.002  0.00  0.00     0.074 A 
ATOM      6  C10 <0> d   1      -0.631   1.774  -5.680  0.00  0.00     0.081 A 
ENDROOT
BRANCH   4   7
ATOM      7  O2  <0> d   1      -0.623   3.857  -8.665  0.00  0.00    -0.349 OA
BRANCH   7   8
ATOM      8  C11 <0> d   1      -0.897   5.226  -8.971  0.00  0.00     0.206 C 
BRANCH   8   9
ATOM      9  C12 <0> d   1      -0.697   5.463 -10.470  0.00  0.00     0.299 C 
BRANCH   9  10
ATOM     10  N3  <0> d   1      -1.691   4.688 -11.225  0.00  0.00     0.093 N 
ATOM     11  C16 <0> d   1      -1.387   4.700 -12.662  0.00  0.00     0.302 C 
ATOM     12  C15 <0> d   1      -2.396   3.819 -13.402  0.00  0.00     0.303 C 
ATOM     13  N4  <0> d   1      -3.755   4.319 -13.151  0.00  0.00     0.096 N 
ATOM     14  C14 <0> d   1      -4.060   4.308 -11.713  0.00  0.00     0.303 C 
ATOM     15  C13 <0> d   1      -3.050   5.188 -10.973  0.00  0.00     0.302 C 
BRANCH  13  16
ATOM     16  C17 <0> d   1      -4.749   3.545 -13.906  0.00  0.00     0.311 C 
BRANCH  16  17
ATOM     17  C18 <0> d   1      -4.552   3.778 -15.382  0.00  0.00    -0.030 A 
ATOM     18  C23 <0> d   1      -3.705   2.958 -16.104  0.00  0.00     0.009 A 
ATOM     19  C22 <0> d   1      -3.528   3.170 -17.459  0.00  0.00     0.001 A 
ATOM     20  C21 <0> d   1      -4.190   4.206 -18.089  0.00  0.00     0.000 A 
ATOM     21  C20 <0> d   1      -5.033   5.029 -17.366  0.00  0.00     0.001 A 
ATOM     22  C19 <0> d   1      -5.214   4.815 -16.012  0.00  0.00     0.009 A 
ENDBRANCH  16  17
ENDBRANCH  13  16
ENDBRANCH   9  10
ENDBRANCH   8   9
ENDBRANCH   7   8
ENDBRANCH   4   7
BRANCH   6  23
ATOM     23  O1  <0> d   1      -0.380   0.488  -5.321  0.00  0.00    -0.360 OA
ATOM     24  H8  <0> d   1      -1.153  -0.090  -5.364  0.00  0.00     0.217 HD
ENDBRANCH   6  23
BRANCH   1  25
ATOM     25  C4  <0> d   1      -1.171   2.300  -3.303  0.00  0.00     0.076 A 
ATOM     26  C3  <0> d   1      -0.156   1.868  -2.460  0.00  0.00     0.029 A 
ATOM     27  C2  <0> d   1      -0.742   1.585  -1.213  0.00  0.00     0.064 A 
ATOM     28  C1  <0> d   1      -0.013   1.086   0.008  0.00  0.00     0.073 C 
ATOM     29  N2  <0> d   1      -2.024   1.822  -1.292  0.00  0.00    -0.178 NA
ATOM     30  N1  <0> d   1      -2.327   2.276  -2.581  0.00  0.00    -0.276 N 
ATOM     31  H1  <0> d   1      -3.207   2.525  -2.905  0.00  0.00     0.189 HD
BRANCH  26  32
ATOM     32  C24 <0> d   1       1.278   1.732  -2.809  0.00  0.00    -0.021 A 
ATOM     33  C29 <0> d   1       1.878   0.473  -2.817  0.00  0.00     0.015 A 
ATOM     34  C28 <0> d   1       3.212   0.349  -3.147  0.00  0.00     0.037 A 
ATOM     35  C27 <0> d   1       3.959   1.476  -3.460  0.00  0.00     0.068 A 
ATOM     36  C26 <0> d   1       3.366   2.731  -3.447  0.00  0.00     0.037 A 
ATOM     37  C25 <0> d   1       2.031   2.862  -3.124  0.00  0.00     0.015 A 
BRANCH  35  38
ATOM     38  O3  <0> d   1       5.274   1.351  -3.780  0.00  0.00    -0.356 OA
ATOM     39  C30 <0> d   1       5.820   0.031  -3.773  0.00  0.00     0.210 C 
ENDBRANCH  35  38
ENDBRANCH  26  32
ENDBRANCH   1  25
TORSDOF 10
