REMARK  4 active torsions:
REMARK  status: ('A' for Active; 'I' for Inactive)
REMARK    1  A    between atoms: C4_4  and  C7_7 
REMARK    2  A    between atoms: C13_14  and  C17_22 
REMARK    3  A    between atoms: C15_17  and  C16_18 
REMARK    4  A    between atoms: C17_22  and  N1_23 
ROOT
ATOM      1  C7  <0> d   1      -1.963  -1.225   4.535  0.00  0.00     0.064 A 
ATOM      2  C8  <0> d   1      -0.526  -1.480   4.731  0.00  0.00     0.198 A 
ATOM      3  O1  <0> d   1      -0.088  -1.886   5.794  0.00  0.00    -0.286 OA
ATOM      4  C9  <0> d   1       0.358  -1.222   3.580  0.00  0.00     0.050 A 
ATOM      5  C10 <0> d   1       1.735  -1.432   3.663  0.00  0.00     0.021 A 
ATOM      6  C11 <0> d   1       2.525  -1.181   2.578  0.00  0.00     0.041 A 
ATOM      7  C12 <0> d   1       1.962  -0.724   1.388  0.00  0.00     0.118 A 
ATOM      8  C13 <0> d   1       0.598  -0.505   1.292  0.00  0.00     0.039 A 
ATOM      9  C14 <0> d   1      -0.220  -0.755   2.386  0.00  0.00     0.101 A 
ATOM     10  O2  <0> d   1      -1.550  -0.552   2.308  0.00  0.00    -0.303 OA
ATOM     11  C15 <0> d   1      -2.386  -0.773   3.326  0.00  0.00     0.174 A 
ATOM     12  O4  <0> d   1       2.758  -0.485   0.315  0.00  0.00    -0.191 OA
ENDROOT
BRANCH   8  13
ATOM     13  C17 <0> d   1       0.002  -0.004   0.002  0.00  0.00     0.281 C 
BRANCH  13  14
ATOM     14  N1  <0> d   1      -0.018   1.465   0.010  0.00  0.00    -0.046 N 
ATOM     15  C21 <0> d   1       1.346   2.010  -0.000  0.00  0.00     0.402 C 
ATOM     16  O3  <0> d   1       1.291   3.436  -0.070  0.00  0.00    -0.364 OA
ATOM     17  C20 <0> d   1       0.609   4.044   1.031  0.00  0.00     0.171 C 
ATOM     18  C19 <0> d   1      -0.824   3.505   1.092  0.00  0.00     0.054 C 
ATOM     19  C18 <0> d   1      -0.778   1.975   1.160  0.00  0.00     0.240 C 
ATOM     20  H18 <0> d   1      -0.523   1.800  -0.907  0.00  0.00     0.282 HD
ENDBRANCH  13  14
ENDBRANCH   8  13
BRANCH  11  21
ATOM     21  C16 <0> d   1      -3.857  -0.511   3.124  0.00  0.00     0.440 C 
ATOM     22  F1  <0> d   1      -4.146   0.813   3.469  0.00  0.00    -0.164 F 
ATOM     23  F2  <0> d   1      -4.189  -0.728   1.783  0.00  0.00    -0.164 F 
ATOM     24  F3  <0> d   1      -4.599  -1.377   3.935  0.00  0.00    -0.164 F 
ENDBRANCH  11  21
BRANCH   1  25
ATOM     25  C4  <0> d   1      -2.929  -1.455   5.636  0.00  0.00    -0.019 A 
ATOM     26  C3  <0> d   1      -3.142  -2.744   6.122  0.00  0.00     0.012 A 
ATOM     27  C2  <0> d   1      -4.042  -2.953   7.146  0.00  0.00     0.001 A 
ATOM     28  C1  <0> d   1      -4.734  -1.886   7.691  0.00  0.00     0.000 A 
ATOM     29  C6  <0> d   1      -4.527  -0.605   7.213  0.00  0.00     0.001 A 
ATOM     30  C5  <0> d   1      -3.624  -0.383   6.193  0.00  0.00     0.012 A 
ENDBRANCH   1  25
TORSDOF 4
