REMARK  7 active torsions:
REMARK  status: ('A' for Active; 'I' for Inactive)
REMARK    1  A    between atoms: C2_2  and  O1_3 
REMARK    2  A    between atoms: O1_3  and  C3_4 
REMARK    3  A    between atoms: C8_9  and  O2_10 
REMARK    4  A    between atoms: O2_10  and  C9_11 
REMARK    5  A    between atoms: C16_20  and  O5_30 
REMARK    6  A    between atoms: C17_21  and  C18_22 
REMARK    7  A    between atoms: C18_22  and  N1_23 
ROOT
ATOM      1  C9  <0> d   1      -5.134  -2.087   0.088  0.00  0.00     0.156 A 
ATOM      2  C10 <0> d   1      -5.337  -3.417   0.164  0.00  0.00     0.087 A 
ATOM      3  O3  <0> d   1      -6.560  -3.961   0.219  0.00  0.00    -0.311 OA
ATOM      4  C11 <0> d   1      -7.684  -3.216   0.202  0.00  0.00     0.100 A 
ATOM      5  C12 <0> d   1      -7.592  -1.815   0.124  0.00  0.00     0.052 A 
ATOM      6  C13 <0> d   1      -6.252  -1.205   0.069  0.00  0.00     0.221 A 
ATOM      7  O4  <0> d   1      -6.106   0.004   0.005  0.00  0.00    -0.284 OA
ATOM      8  C14 <0> d   1      -8.748  -1.033   0.106  0.00  0.00     0.021 A 
ATOM      9  C15 <0> d   1      -9.973  -1.634   0.165  0.00  0.00     0.038 A 
ATOM     10  C16 <0> d   1     -10.074  -3.022   0.242  0.00  0.00     0.076 A 
ATOM     11  C17 <0> d   1      -8.936  -3.811   0.260  0.00  0.00     0.035 A 
ATOM     12  C24 <0> d   1      -4.139  -4.331   0.188  0.00  0.00     0.080 C 
ENDROOT
BRANCH   1  13
ATOM     13  O2  <0> d   1      -3.868  -1.589   0.035  0.00  0.00    -0.301 OA
BRANCH  13  14
ATOM     14  C8  <0> d   1      -3.470  -0.976  -1.111  0.00  0.00     0.109 A 
ATOM     15  C3  <0> d   1      -2.231  -0.345  -1.171  0.00  0.00     0.102 A 
ATOM     16  C4  <0> d   1      -1.828   0.274  -2.343  0.00  0.00     0.039 A 
ATOM     17  C5  <0> d   1      -2.659   0.269  -3.449  0.00  0.00     0.003 A 
ATOM     18  C6  <0> d   1      -3.892  -0.353  -3.388  0.00  0.00     0.003 A 
ATOM     19  C7  <0> d   1      -4.300  -0.973  -2.221  0.00  0.00     0.040 A 
BRANCH  15  20
ATOM     20  O1  <0> d   1      -1.415  -0.341  -0.083  0.00  0.00    -0.349 OA
BRANCH  20  21
ATOM     21  C2  <0> d   1      -0.158   0.326  -0.217  0.00  0.00     0.171 C 
ATOM     22  C1  <0> d   1       0.615   0.225   1.099  0.00  0.00     0.034 C 
ENDBRANCH  20  21
ENDBRANCH  15  20
ENDBRANCH  13  14
ENDBRANCH   1  13
BRANCH  11  23
ATOM     23  C18 <0> d   1      -9.057  -5.311   0.344  0.00  0.00     0.279 C 
BRANCH  23  24
ATOM     24  N1  <0> d   1      -9.067  -5.724   1.754  0.00  0.00    -0.064 N 
ATOM     25  C22 <0> d   1      -9.305  -7.171   1.838  0.00  0.00     0.265 C 
ATOM     26  C21 <0> d   1      -9.335  -7.598   3.307  0.00  0.00     0.299 C 
ATOM     27  N2  <0> d   1      -8.052  -7.258   3.939  0.00  0.00     0.087 N 
ATOM     28  C20 <0> d   1      -7.788  -5.815   3.840  0.00  0.00     0.299 C 
ATOM     29  C23 <0> d   1      -8.020  -7.704   5.338  0.00  0.00     0.310 C 
ATOM     30  C19 <0> d   1      -7.772  -5.402   2.367  0.00  0.00     0.265 C 
ATOM     31  H29 <0> d   1      -9.801  -5.233   2.242  0.00  0.00     0.280 HD
ENDBRANCH  23  24
ENDBRANCH  11  23
BRANCH  10  32
ATOM     32  O5  <0> d   1     -11.298  -3.605   0.300  0.00  0.00    -0.360 OA
ATOM     33  H25 <0> d   1     -11.672  -3.821  -0.565  0.00  0.00     0.217 HD
ENDBRANCH  10  32
TORSDOF 7
