REMARK  2 active torsions:
REMARK  status: ('A' for Active; 'I' for Inactive)
REMARK    1  A    between atoms: N2_5  and  C6_8 
REMARK    2  A    between atoms: C6_8  and  C7_9 
ROOT
ATOM      1  C7  <0> d   1       2.097  -4.553   1.057  0.00  0.00    -0.014 A 
ATOM      2  C8  <0> d   1       1.545  -4.878   2.254  0.00  0.00     0.092 A 
ATOM      3  C9  <0> d   1       2.363  -5.370   3.293  0.00  0.00     0.288 A 
ATOM      4  O1  <0> d   1       1.855  -5.658   4.362  0.00  0.00    -0.260 OA
ATOM      5  O2  <0> d   1       3.686  -5.529   3.134  0.00  0.00    -0.275 OA
ATOM      6  C10 <0> d   1       4.298  -5.224   1.969  0.00  0.00     0.090 A 
ATOM      7  C11 <0> d   1       3.542  -4.734   0.890  0.00  0.00     0.008 A 
ATOM      8  C12 <0> d   1       4.172  -4.423  -0.319  0.00  0.00     0.038 A 
ATOM      9  C13 <0> d   1       5.532  -4.605  -0.445  0.00  0.00     0.035 A 
ATOM     10  C14 <0> d   1       6.275  -5.094   0.621  0.00  0.00     0.026 A 
ATOM     11  C15 <0> d   1       5.668  -5.395   1.823  0.00  0.00     0.040 A 
ATOM     12 Cl1  <0> d   1       6.320  -4.220  -1.943  0.00  0.00    -0.084 Cl
ENDROOT
BRANCH   1  13
ATOM     13  C6  <0> d   1       1.247  -4.025  -0.070  0.00  0.00     0.274 C 
BRANCH  13  14
ATOM     14  N2  <0> d   1       1.282  -2.557  -0.064  0.00  0.00    -0.064 N 
ATOM     15  C3  <0> d   1       0.553  -2.045  -1.232  0.00  0.00     0.265 C 
ATOM     16  C2  <0> d   1       0.605  -0.516  -1.237  0.00  0.00     0.299 C 
ATOM     17  N1  <0> d   1       0.002  -0.004   0.002  0.00  0.00     0.087 N 
ATOM     18  C1  <0> d   1      -0.018   1.465   0.010  0.00  0.00     0.310 C 
ATOM     19  C5  <0> d   1       0.707  -0.528   1.181  0.00  0.00     0.299 C 
ATOM     20  C4  <0> d   1       0.653  -2.057   1.165  0.00  0.00     0.265 C 
ATOM     21  H18 <0> d   1       2.241  -2.244  -0.103  0.00  0.00     0.280 HD
ENDBRANCH  13  14
ENDBRANCH   1  13
TORSDOF 2
