REMARK  5 active torsions:
REMARK  status: ('A' for Active; 'I' for Inactive)
REMARK    1  A    between atoms: C2_2  and  N1_3 
REMARK    2  A    between atoms: N2_6  and  C7_9 
REMARK    3  A    between atoms: C7_9  and  C8_10 
REMARK    4  A    between atoms: C9_11  and  O4_31 
REMARK    5  A    between atoms: C15_18  and  C16_19 
ROOT
ATOM      1  C8  <0> d   1       3.239  -3.972  -3.942  0.00  0.00     0.036 A 
ATOM      2  C9  <0> d   1       4.265  -4.728  -3.398  0.00  0.00     0.076 A 
ATOM      3  C10 <0> d   1       4.236  -6.117  -3.468  0.00  0.00     0.045 A 
ATOM      4  C11 <0> d   1       3.189  -6.752  -4.077  0.00  0.00    -0.042 A 
ATOM      5  C12 <0> d   1       2.149  -6.004  -4.628  0.00  0.00     0.057 A 
ATOM      6  C13 <0> d   1       2.165  -4.601  -4.559  0.00  0.00     0.101 A 
ATOM      7  O1  <0> d   1       1.058  -4.104  -5.152  0.00  0.00    -0.305 OA
ATOM      8  C14 <0> d   1       0.260  -5.086  -5.631  0.00  0.00     0.129 A 
ATOM      9  C15 <0> d   1      -0.926  -4.915  -6.280  0.00  0.00     0.078 C 
ATOM     10  C24 <0> d   1       0.908  -6.370  -5.335  0.00  0.00     0.219 A 
ATOM     11  O3  <0> d   1       0.504  -7.489  -5.604  0.00  0.00    -0.284 OA
ATOM     12  C25 <0> d   1       3.160  -8.257  -4.152  0.00  0.00     0.049 C 
ENDROOT
BRANCH   1  13
ATOM     13  C7  <0> d   1       3.284  -2.468  -3.858  0.00  0.00     0.279 C 
BRANCH  13  14
ATOM     14  N2  <0> d   1       2.630  -2.027  -2.620  0.00  0.00    -0.064 N 
ATOM     15  C4  <0> d   1       2.779  -0.572  -2.479  0.00  0.00     0.265 C 
ATOM     16  C3  <0> d   1       2.114  -0.114  -1.179  0.00  0.00     0.300 C 
ATOM     17  N1  <0> d   1       0.690  -0.478  -1.207  0.00  0.00     0.091 N 
ATOM     18  C6  <0> d   1       0.525  -1.929  -1.372  0.00  0.00     0.300 C 
ATOM     19  C5  <0> d   1       1.203  -2.372  -2.670  0.00  0.00     0.265 C 
ATOM     20  H27 <0> d   1       3.059  -2.486  -1.831  0.00  0.00     0.280 HD
BRANCH  17  21
ATOM     21  C2  <0> d   1       0.002  -0.004   0.002  0.00  0.00     0.268 C 
ATOM     22  C1  <0> d   1      -0.019   1.526   0.010  0.00  0.00     0.037 C 
ENDBRANCH  17  21
ENDBRANCH  13  14
ENDBRANCH   1  13
BRANCH   2  23
ATOM     23  O4  <0> d   1       5.309  -4.107  -2.791  0.00  0.00    -0.360 OA
ATOM     24  H26 <0> d   1       5.181  -3.957  -1.845  0.00  0.00     0.217 HD
ENDBRANCH   2  23
BRANCH   9  25
ATOM     25  C16 <0> d   1      -1.426  -3.610  -6.506  0.00  0.00     0.079 A 
ATOM     26  O2  <0> d   1      -0.820  -2.464  -6.126  0.00  0.00    -0.310 OA
ATOM     27  C23 <0> d   1      -1.566  -1.405  -6.501  0.00  0.00     0.086 A 
ATOM     28  C18 <0> d   1      -2.714  -1.901  -7.147  0.00  0.00     0.000 A 
ATOM     29  C22 <0> d   1      -1.403  -0.032  -6.362  0.00  0.00     0.038 A 
ATOM     30  C17 <0> d   1      -2.599  -3.314  -7.137  0.00  0.00     0.051 A 
ATOM     31  C19 <0> d   1      -3.675  -1.012  -7.641  0.00  0.00     0.014 A 
ATOM     32  C20 <0> d   1      -3.494   0.334  -7.493  0.00  0.00     0.001 A 
ATOM     33  C21 <0> d   1      -2.363   0.826  -6.856  0.00  0.00     0.003 A 
ENDBRANCH   9  25
TORSDOF 5
