REMARK  7 active torsions:
REMARK  status: ('A' for Active; 'I' for Inactive)
REMARK    1  A    between atoms: N1_4  and  C7_9 
REMARK    2  A    between atoms: C7_9  and  C8_10 
REMARK    3  A    between atoms: C8_10  and  O2_11 
REMARK    4  A    between atoms: O2_11  and  C9_12 
REMARK    5  A    between atoms: C12_15  and  C15_19 
REMARK    6  A    between atoms: C13_16  and  O3_18 
REMARK    7  A    between atoms: C16_20  and  C18_25 
ROOT
ATOM      1  C9  <0> d   1      -2.069  -6.103   0.844  0.00  0.00     0.071 A 
ATOM      2  C10 <0> d   1      -2.276  -6.711  -0.388  0.00  0.00     0.038 A 
ATOM      3  C11 <0> d   1      -2.137  -8.077  -0.518  0.00  0.00     0.019 A 
ATOM      4  C12 <0> d   1      -1.787  -8.850   0.587  0.00  0.00     0.029 A 
ATOM      5  C13 <0> d   1      -1.578  -8.237   1.827  0.00  0.00     0.081 A 
ATOM      6  C14 <0> d   1      -1.715  -6.865   1.947  0.00  0.00     0.074 A 
ENDROOT
BRANCH   4   7
ATOM      7  C15 <0> d   1      -1.637 -10.319   0.450  0.00  0.00     0.102 A 
ATOM      8  N3  <0> d   1      -0.627 -11.039   0.886  0.00  0.00    -0.174 NA
ATOM      9  N2  <0> d   1      -0.866 -12.380   0.562  0.00  0.00    -0.288 N 
ATOM     10  C17 <0> d   1      -2.044 -12.457  -0.091  0.00  0.00     0.124 A 
ATOM     11  H3  <0> d   1      -0.282 -13.126   0.768  0.00  0.00     0.188 HD
ATOM     12  C16 <0> d   1      -2.555 -11.197  -0.181  0.00  0.00     0.022 A 
BRANCH  12  13
ATOM     13  C18 <0> d   1      -3.837 -10.813  -0.822  0.00  0.00    -0.022 A 
ATOM     14  C23 <0> d   1      -4.098 -11.184  -2.139  0.00  0.00     0.014 A 
ATOM     15  C22 <0> d   1      -5.295 -10.831  -2.729  0.00  0.00     0.020 A 
ATOM     16  C21 <0> d   1      -6.230 -10.099  -2.017  0.00  0.00     0.011 A 
ATOM     17  C20 <0> d   1      -5.973  -9.723  -0.710  0.00  0.00     0.020 A 
ATOM     18 Br1  <0> d   1      -7.864  -9.611  -2.833  0.00  0.00    -0.051 Br
ATOM     19  C19 <0> d   1      -4.782 -10.077  -0.110  0.00  0.00     0.014 A 
ENDBRANCH  12  13
ENDBRANCH   4   7
BRANCH   5  20
ATOM     20  O3  <0> d   1      -1.238  -8.985   2.908  0.00  0.00    -0.360 OA
ATOM     21  H21 <0> d   1      -0.284  -9.097   3.025  0.00  0.00     0.217 HD
ENDBRANCH   5  20
BRANCH   1  22
ATOM     22  O2  <0> d   1      -2.208  -4.757   0.966  0.00  0.00    -0.349 OA
BRANCH  22  23
ATOM     23  C8  <0> d   1      -2.574  -4.033  -0.210  0.00  0.00     0.206 C 
BRANCH  23  24
ATOM     24  C7  <0> d   1      -2.682  -2.543   0.121  0.00  0.00     0.299 C 
BRANCH  24  25
ATOM     25  N1  <0> d   1      -1.364  -2.034   0.522  0.00  0.00     0.095 N 
ATOM     26  C3  <0> d   1      -0.492  -1.850  -0.647  0.00  0.00     0.303 C 
ATOM     27  C2  <0> d   1       0.886  -1.377  -0.180  0.00  0.00     0.146 C 
ATOM     28  C1  <0> d   1       1.774  -1.107  -1.397  0.00  0.00     0.041 C 
ATOM     29  O1  <0> d   1       0.740  -0.174   0.580  0.00  0.00    -0.378 OA
ATOM     30  C5  <0> d   1      -0.103  -0.317   1.727  0.00  0.00     0.146 C 
ATOM     31  C4  <0> d   1      -1.492  -0.779   1.278  0.00  0.00     0.303 C 
ATOM     32  C6  <0> d   1       0.498  -1.353   2.678  0.00  0.00     0.041 C 
ENDBRANCH  24  25
ENDBRANCH  23  24
ENDBRANCH  22  23
ENDBRANCH   1  22
TORSDOF 7
