REMARK  5 active torsions:
REMARK  status: ('A' for Active; 'I' for Inactive)
REMARK    1  A    between atoms: C3_3  and  O4_21 
REMARK    2  A    between atoms: C9_10  and  C11_13 
REMARK    3  A    between atoms: C11_13  and  N1_14 
REMARK    4  A    between atoms: O4_21  and  C17_22 
REMARK    5  A    between atoms: C22_27  and  O5_28 
ROOT
ATOM      1  C1  <0> d   1      -0.973   4.748   4.620  0.00  0.00     0.080 C 
ATOM      2  C2  <0> d   1      -2.021   3.908   5.302  0.00  0.00     0.087 A 
ATOM      3  C3  <0> d   1      -2.411   2.759   4.716  0.00  0.00     0.156 A 
ATOM      4  C4  <0> d   1      -3.405   1.953   5.341  0.00  0.00     0.221 A 
ATOM      5  O1  <0> d   1      -3.786   0.910   4.838  0.00  0.00    -0.284 OA
ATOM      6  C5  <0> d   1      -3.949   2.430   6.624  0.00  0.00     0.052 A 
ATOM      7  C6  <0> d   1      -4.923   1.706   7.315  0.00  0.00     0.021 A 
ATOM      8  C7  <0> d   1      -5.407   2.182   8.499  0.00  0.00     0.041 A 
ATOM      9  C8  <0> d   1      -4.936   3.386   9.021  0.00  0.00     0.118 A 
ATOM     10  C9  <0> d   1      -3.970   4.115   8.348  0.00  0.00     0.039 A 
ATOM     11  C10 <0> d   1      -3.467   3.644   7.143  0.00  0.00     0.101 A 
ATOM     12  O2  <0> d   1      -2.526   4.335   6.467  0.00  0.00    -0.311 OA
ATOM     13  O3  <0> d   1      -5.427   3.847  10.199  0.00  0.00    -0.191 OA
ENDROOT
BRANCH   3  14
ATOM     14  O4  <0> d   1      -1.862   2.374   3.531  0.00  0.00    -0.301 OA
BRANCH  14  15
ATOM     15  C17 <0> d   1      -0.745   1.600   3.566  0.00  0.00     0.109 A 
ATOM     16  C22 <0> d   1      -0.148   1.182   2.380  0.00  0.00     0.102 A 
ATOM     17  C21 <0> d   1       0.993   0.398   2.422  0.00  0.00     0.039 A 
ATOM     18  C20 <0> d   1       1.534   0.028   3.639  0.00  0.00     0.003 A 
ATOM     19  C19 <0> d   1       0.939   0.440   4.817  0.00  0.00     0.003 A 
ATOM     20  C18 <0> d   1      -0.200   1.222   4.783  0.00  0.00     0.040 A 
BRANCH  16  21
ATOM     21  O5  <0> d   1      -0.682   1.547   1.184  0.00  0.00    -0.353 OA
ATOM     22  C23 <0> d   1      -0.013   1.086   0.008  0.00  0.00     0.210 C 
ENDBRANCH  16  21
ENDBRANCH  14  15
ENDBRANCH   3  14
BRANCH  10  23
ATOM     23  C11 <0> d   1      -3.467   5.414   8.922  0.00  0.00     0.279 C 
BRANCH  23  24
ATOM     24  N1  <0> d   1      -4.295   6.522   8.427  0.00  0.00    -0.067 N 
ATOM     25  C16 <0> d   1      -3.991   7.768   9.142  0.00  0.00     0.235 C 
ATOM     26  C15 <0> d   1      -4.968   8.861   8.704  0.00  0.00     0.028 C 
ATOM     27  C14 <0> d   1      -4.844   9.075   7.193  0.00  0.00     0.003 C 
ATOM     28  C13 <0> d   1      -5.119   7.751   6.474  0.00  0.00     0.028 C 
ATOM     29  C12 <0> d   1      -4.137   6.690   6.977  0.00  0.00     0.235 C 
ATOM     30  H25 <0> d   1      -5.348   6.272   8.622  0.00  0.00     0.280 HD
ENDBRANCH  23  24
ENDBRANCH  10  23
TORSDOF 5
