REMARK  7 active torsions:
REMARK  status: ('A' for Active; 'I' for Inactive)
REMARK    1  A    between atoms: C3_4  and  C11_13 
REMARK    2  A    between atoms: C8_9  and  O1_11 
REMARK    3  A    between atoms: C18_21  and  C20_24 
REMARK    4  A    between atoms: C20_24  and  N2_25 
REMARK    5  A    between atoms: N3_28  and  C25_31 
REMARK    6  A    between atoms: C25_31  and  C26_32 
REMARK    7  A    between atoms: C26_32  and  O4_33 
ROOT
ATOM      1  C11 <0> d   1       4.321   2.655   6.414  0.00  0.00     0.055 C 
ATOM      2  C12 <0> d   1       4.210   3.148   5.148  0.00  0.00     0.128 A 
ATOM      3  C13 <0> d   1       4.209   4.522   4.791  0.00  0.00     0.218 A 
ATOM      4  O2  <0> d   1       4.303   5.482   5.537  0.00  0.00    -0.284 OA
ATOM      5  C14 <0> d   1       4.068   4.539   3.324  0.00  0.00     0.051 A 
ATOM      6  C15 <0> d   1       4.002   5.561   2.377  0.00  0.00     0.021 A 
ATOM      7  C16 <0> d   1       3.867   5.253   1.053  0.00  0.00     0.041 A 
ATOM      8  C17 <0> d   1       3.801   3.924   0.645  0.00  0.00     0.118 A 
ATOM      9  C18 <0> d   1       3.860   2.898   1.575  0.00  0.00     0.039 A 
ATOM     10  C19 <0> d   1       3.997   3.195   2.924  0.00  0.00     0.101 A 
ATOM     11  O3  <0> d   1       4.084   2.410   4.020  0.00  0.00    -0.305 OA
ATOM     12  O5  <0> d   1       3.673   3.629  -0.674  0.00  0.00    -0.191 OA
ENDROOT
BRANCH   1  13
ATOM     13  C3  <0> d   1       4.308   1.211   6.639  0.00  0.00    -0.005 A 
ATOM     14  C2  <0> d   1       4.186   0.226   5.683  0.00  0.00     0.103 A 
ATOM     15  N1  <0> d   1       4.219  -0.991   6.280  0.00  0.00    -0.360 N 
ATOM     16  C1  <0> d   1       4.119  -2.270   5.573  0.00  0.00     0.156 C 
ATOM     17  C5  <0> d   1       4.355  -0.855   7.648  0.00  0.00     0.045 A 
ATOM     18  C4  <0> d   1       4.417   0.517   7.937  0.00  0.00     0.005 A 
ATOM     19  C6  <0> d   1       4.433  -1.777   8.687  0.00  0.00     0.033 A 
ATOM     20  C9  <0> d   1       4.555   0.949   9.253  0.00  0.00     0.051 A 
ATOM     21  C8  <0> d   1       4.632   0.020  10.274  0.00  0.00     0.069 A 
ATOM     22  C7  <0> d   1       4.570  -1.340   9.987  0.00  0.00     0.039 A 
BRANCH  21  23
ATOM     23  O1  <0> d   1       4.767   0.436  11.561  0.00  0.00    -0.356 OA
ATOM     24  C10 <0> d   1       4.840  -0.578  12.566  0.00  0.00     0.210 C 
ENDBRANCH  21  23
ENDBRANCH   1  13
BRANCH   9  25
ATOM     25  C20 <0> d   1       3.782   1.463   1.122  0.00  0.00     0.279 C 
BRANCH  25  26
ATOM     26  N2  <0> d   1       2.379   1.030   1.107  0.00  0.00    -0.064 N 
ATOM     27  C24 <0> d   1       2.278  -0.422   0.901  0.00  0.00     0.265 C 
ATOM     28  C23 <0> d   1       0.808  -0.843   0.972  0.00  0.00     0.300 C 
ATOM     29  N3  <0> d   1       0.043  -0.115  -0.050  0.00  0.00     0.093 N 
ATOM     30  C22 <0> d   1       0.144   1.336   0.156  0.00  0.00     0.300 C 
ATOM     31  C21 <0> d   1       1.613   1.758   0.085  0.00  0.00     0.265 C 
ATOM     32  H29 <0> d   1       1.944   1.265   2.090  0.00  0.00     0.280 HD
BRANCH  29  33
ATOM     33  C25 <0> d   1      -1.361  -0.549  -0.064  0.00  0.00     0.298 C 
BRANCH  33  34
ATOM     34  C26 <0> d   1      -1.999  -0.164  -1.400  0.00  0.00     0.194 C 
BRANCH  34  35
ATOM     35  O4  <0> d   1      -1.363  -0.884  -2.458  0.00  0.00    -0.399 OA
ATOM     36  H28 <0> d   1      -1.690  -0.737  -3.498  0.00  0.00     0.209 HD
ENDBRANCH  34  35
ENDBRANCH  33  34
ENDBRANCH  29  33
ENDBRANCH  25  26
ENDBRANCH   9  25
TORSDOF 7
