REMARK  5 active torsions:
REMARK  status: ('A' for Active; 'I' for Inactive)
REMARK    1  A    between atoms: C10_12  and  C11_13 
REMARK    2  A    between atoms: N1_20  and  C19_23 
REMARK    3  A    between atoms: C19_23  and  C20_24 
REMARK    4  A    between atoms: C20_24  and  C21_25 
REMARK    5  A    between atoms: C21_25  and  N2_26 
ROOT
ATOM      1  C1  <0> d   1      -0.018   1.503   0.010  0.00  0.00     0.050 C 
ATOM      2  C2  <0> d   1       0.002  -0.004   0.002  0.00  0.00    -0.032 C 
ATOM      3  C3  <0> d   1      -1.206  -0.749   0.004  0.00  0.00     0.006 A 
ATOM      4  C4  <0> d   1      -2.438  -0.107  -0.187  0.00  0.00     0.017 A 
ATOM      5  C5  <0> d   1      -3.586  -0.841  -0.222  0.00  0.00     0.038 A 
ATOM      6  C6  <0> d   1      -3.551  -2.228  -0.065  0.00  0.00     0.082 A 
ATOM      7  C7  <0> d   1      -2.345  -2.876   0.142  0.00  0.00     0.038 A 
ATOM      8  C8  <0> d   1      -1.168  -2.143   0.190  0.00  0.00     0.101 A 
ATOM      9  O1  <0> d   1       0.013  -2.761   0.437  0.00  0.00    -0.273 OA
ATOM     10  C9  <0> d   1       1.125  -2.163  -0.050  0.00  0.00     0.300 C 
ATOM     11  O2  <0> d   1       2.042  -2.819  -0.510  0.00  0.00    -0.259 OA
ATOM     12  C10 <0> d   1       1.190  -0.693  -0.013  0.00  0.00     0.057 C 
ATOM     13  C17 <0> d   1      -2.292  -4.373   0.312  0.00  0.00     0.319 C 
ATOM     14  N1  <0> d   1      -3.632  -4.881   0.635  0.00  0.00     0.116 N 
ATOM     15  C18 <0> d   1      -4.621  -4.339  -0.311  0.00  0.00     0.447 C 
ATOM     16  O3  <0> d   1      -4.715  -2.927  -0.112  0.00  0.00    -0.321 OA
ENDROOT
BRANCH  14  17
ATOM     17  C19 <0> d   1      -3.653  -6.350   0.634  0.00  0.00     0.277 C 
BRANCH  17  18
ATOM     18  C20 <0> d   1      -4.981  -6.842   1.212  0.00  0.00     0.058 C 
BRANCH  18  19
ATOM     19  C21 <0> d   1      -5.003  -8.372   1.210  0.00  0.00     0.236 C 
BRANCH  19  20
ATOM     20  N2  <0> d   1      -6.279  -8.844   1.765  0.00  0.00    -0.067 N 
ATOM     21  C25 <0> d   1      -6.349 -10.308   1.654  0.00  0.00     0.261 C 
ATOM     22  C24 <0> d   1      -7.679 -10.797   2.233  0.00  0.00     0.195 C 
ATOM     23  O4  <0> d   1      -7.788 -10.367   3.593  0.00  0.00    -0.388 OA
ATOM     24  C23 <0> d   1      -7.701  -8.949   3.755  0.00  0.00     0.195 C 
ATOM     25  C22 <0> d   1      -6.371  -8.456   3.179  0.00  0.00     0.261 C 
ATOM     26  H29 <0> d   1      -7.042  -8.430   1.252  0.00  0.00     0.280 HD
ENDBRANCH  19  20
ENDBRANCH  18  19
ENDBRANCH  17  18
ENDBRANCH  14  17
BRANCH  12  27
ATOM     27  C11 <0> d   1       2.490   0.018   0.012  0.00  0.00    -0.019 A 
ATOM     28  C16 <0> d   1       3.344  -0.125   1.105  0.00  0.00     0.012 A 
ATOM     29  C15 <0> d   1       4.556   0.534   1.120  0.00  0.00     0.001 A 
ATOM     30  C14 <0> d   1       4.919   1.345   0.060  0.00  0.00     0.000 A 
ATOM     31  C13 <0> d   1       4.073   1.495  -1.024  0.00  0.00     0.001 A 
ATOM     32  C12 <0> d   1       2.861   0.836  -1.054  0.00  0.00     0.012 A 
ENDBRANCH  12  27
TORSDOF 5
