REMARK  4 active torsions:
REMARK  status: ('A' for Active; 'I' for Inactive)
REMARK    1  A    between atoms: C4_4  and  C7_7 
REMARK    2  A    between atoms: C7_7  and  N1_8 
REMARK    3  A    between atoms: N2_11  and  C12_14 
REMARK    4  A    between atoms: C12_14  and  C13_15 
ROOT
ATOM      1  C13 <0> d   1      -0.785   1.673  -3.609  0.00  0.00    -0.011 A 
ATOM      2  C14 <0> d   1      -0.137   2.574  -4.389  0.00  0.00     0.092 A 
ATOM      3  C15 <0> d   1      -0.793   3.135  -5.506  0.00  0.00     0.288 A 
ATOM      4  O1  <0> d   1      -0.201   3.943  -6.198  0.00  0.00    -0.260 OA
ATOM      5  O2  <0> d   1      -2.054   2.802  -5.824  0.00  0.00    -0.275 OA
ATOM      6  C16 <0> d   1      -2.755   1.912  -5.089  0.00  0.00     0.090 A 
ATOM      7  C17 <0> d   1      -2.160   1.310  -3.967  0.00  0.00     0.007 A 
ATOM      8  C18 <0> d   1      -2.884   0.385  -3.214  0.00  0.00     0.022 A 
ATOM      9  C19 <0> d   1      -4.181   0.060  -3.569  0.00  0.00    -0.051 A 
ATOM     10  C20 <0> d   1      -4.765   0.652  -4.674  0.00  0.00    -0.049 A 
ATOM     11  C21 <0> d   1      -4.056   1.577  -5.426  0.00  0.00     0.046 A 
ATOM     12  C22 <0> d   1      -6.176   0.344  -5.104  0.00  0.00     0.039 C 
ATOM     13  C23 <0> d   1      -6.661  -0.956  -4.468  0.00  0.00     0.005 C 
ATOM     14  C24 <0> d   1      -6.410  -0.878  -2.957  0.00  0.00     0.005 C 
ATOM     15  C25 <0> d   1      -4.904  -0.949  -2.715  0.00  0.00     0.039 C 
ENDROOT
BRANCH   1  16
ATOM     16  C12 <0> d   1      -0.109   1.057  -2.412  0.00  0.00     0.312 C 
BRANCH  16  17
ATOM     17  N2  <0> d   1      -0.656   1.647  -1.183  0.00  0.00     0.096 N 
ATOM     18  C9  <0> d   1       0.048   1.140   0.004  0.00  0.00     0.300 C 
ATOM     19  C8  <0> d   1      -0.601   1.716   1.264  0.00  0.00     0.265 C 
ATOM     20  N1  <0> d   1      -0.550   3.183   1.212  0.00  0.00    -0.064 N 
ATOM     21  C11 <0> d   1      -1.254   3.691   0.025  0.00  0.00     0.265 C 
ATOM     22  H29 <0> d   1       0.505   3.484   1.135  0.00  0.00     0.280 HD
ATOM     23  C10 <0> d   1      -0.604   3.115  -1.235  0.00  0.00     0.300 C 
BRANCH  20  24
ATOM     24  C7  <0> d   1      -1.097   3.774   2.441  0.00  0.00     0.273 C 
BRANCH  24  25
ATOM     25  C4  <0> d   1      -0.204   3.428   3.604  0.00  0.00    -0.033 A 
ATOM     26  C3  <0> d   1       0.843   4.264   3.945  0.00  0.00     0.009 A 
ATOM     27  C2  <0> d   1       1.661   3.947   5.012  0.00  0.00     0.001 A 
ATOM     28  C1  <0> d   1       1.433   2.794   5.740  0.00  0.00     0.000 A 
ATOM     29  C6  <0> d   1       0.386   1.958   5.400  0.00  0.00     0.001 A 
ATOM     30  C5  <0> d   1      -0.436   2.278   4.335  0.00  0.00     0.009 A 
ENDBRANCH  24  25
ENDBRANCH  20  24
ENDBRANCH  16  17
ENDBRANCH   1  16
TORSDOF 4
