REMARK  11 active torsions:
REMARK  status: ('A' for Active; 'I' for Inactive)
REMARK    1  A    between atoms: C2_2  and  O1_3 
REMARK    2  A    between atoms: O1_3  and  C3_4 
REMARK    3  A    between atoms: C8_9  and  C9_10 
REMARK    4  A    between atoms: C16_18  and  C18_21 
REMARK    5  A    between atoms: C18_21  and  N1_22 
REMARK    6  A    between atoms: N1_22  and  C19_23 
REMARK    7  A    between atoms: N1_22  and  C22_27 
REMARK    8  A    between atoms: C19_23  and  C20_24 
REMARK    9  A    between atoms: C20_24  and  O4_25 
REMARK   10  A    between atoms: C22_27  and  C23_28 
REMARK   11  A    between atoms: C23_28  and  O5_29 
ROOT
ATOM      1  C9  <0> d   1       3.134  -0.997   4.219  0.00  0.00     0.055 C 
ATOM      2  C10 <0> d   1       3.261  -1.720   5.361  0.00  0.00     0.128 A 
ATOM      3  C11 <0> d   1       3.440  -1.180   6.716  0.00  0.00     0.218 A 
ATOM      4  O2  <0> d   1       3.506  -0.009   7.049  0.00  0.00    -0.284 OA
ATOM      5  C12 <0> d   1       3.524  -2.370   7.581  0.00  0.00     0.051 A 
ATOM      6  C13 <0> d   1       3.691  -2.542   8.956  0.00  0.00     0.021 A 
ATOM      7  C14 <0> d   1       3.732  -3.800   9.485  0.00  0.00     0.041 A 
ATOM      8  C15 <0> d   1       3.607  -4.912   8.656  0.00  0.00     0.118 A 
ATOM      9  C16 <0> d   1       3.440  -4.757   7.290  0.00  0.00     0.039 A 
ATOM     10  C17 <0> d   1       3.396  -3.484   6.735  0.00  0.00     0.101 A 
ATOM     11  O3  <0> d   1       3.240  -3.071   5.459  0.00  0.00    -0.305 OA
ATOM     12  O6  <0> d   1       3.649  -6.159   9.192  0.00  0.00    -0.191 OA
ENDROOT
BRANCH   9  13
ATOM     13  C18 <0> d   1       3.307  -5.970   6.405  0.00  0.00     0.279 C 
BRANCH  13  14
ATOM     14  N1  <0> d   1       1.929  -6.476   6.471  0.00  0.00    -0.063 N 
ATOM     15  H29 <0> d   1       1.672  -6.623   7.436  0.00  0.00     0.280 HD
BRANCH  14  16
ATOM     16  C19 <0> d   1       1.018  -5.496   5.866  0.00  0.00     0.261 C 
BRANCH  16  17
ATOM     17  C20 <0> d   1      -0.427  -5.964   6.046  0.00  0.00     0.194 C 
BRANCH  17  18
ATOM     18  O4  <0> d   1      -0.755  -5.975   7.437  0.00  0.00    -0.394 OA
ATOM     19  C21 <0> d   1      -2.090  -6.400   7.717  0.00  0.00     0.201 C 
ENDBRANCH  17  18
ENDBRANCH  16  17
ENDBRANCH  14  16
BRANCH  14  20
ATOM     20  C22 <0> d   1       1.838  -7.746   5.740  0.00  0.00     0.261 C 
BRANCH  20  21
ATOM     21  C23 <0> d   1       2.642  -8.819   6.479  0.00  0.00     0.194 C 
BRANCH  21  22
ATOM     22  O5  <0> d   1       2.086  -9.018   7.780  0.00  0.00    -0.394 OA
ATOM     23  C24 <0> d   1       2.767 -10.005   8.558  0.00  0.00     0.201 C 
ENDBRANCH  21  22
ENDBRANCH  20  21
ENDBRANCH  14  20
ENDBRANCH  13  14
ENDBRANCH   9  13
BRANCH   1  24
ATOM     24  C8  <0> d   1       2.882  -1.677   2.943  0.00  0.00     0.000 A 
ATOM     25  C3  <0> d   1       2.403  -0.954   1.838  0.00  0.00     0.079 A 
ATOM     26  C4  <0> d   1       2.175  -1.607   0.637  0.00  0.00     0.037 A 
ATOM     27  C5  <0> d   1       2.412  -2.964   0.530  0.00  0.00     0.003 A 
ATOM     28  C6  <0> d   1       2.880  -3.683   1.619  0.00  0.00     0.001 A 
ATOM     29  C7  <0> d   1       3.113  -3.053   2.821  0.00  0.00     0.014 A 
BRANCH  25  30
ATOM     30  O1  <0> d   1       2.170   0.379   1.944  0.00  0.00    -0.351 OA
BRANCH  30  31
ATOM     31  C2  <0> d   1       1.683   1.047   0.779  0.00  0.00     0.171 C 
ATOM     32  C1  <0> d   1       1.482   2.532   1.089  0.00  0.00     0.034 C 
ENDBRANCH  30  31
ENDBRANCH  25  30
ENDBRANCH   1  24
TORSDOF 11
