REMARK  4 active torsions:
REMARK  status: ('A' for Active; 'I' for Inactive)
REMARK    1  A    between atoms: C3_3  and  C7_8 
REMARK    2  A    between atoms: N1_20  and  C18_23 
REMARK    3  A    between atoms: C18_23  and  C19_24 
REMARK    4  A    between atoms: C19_24  and  N2_25 
ROOT
ATOM      1  C7  <0> d   1       3.652   2.156  -0.022  0.00  0.00     0.053 C 
ATOM      2  C8  <0> d   1       4.832   1.494   0.066  0.00  0.00     0.127 A 
ATOM      3  C9  <0> d   1       6.166   2.106   0.179  0.00  0.00     0.218 A 
ATOM      4  O1  <0> d   1       6.443   3.292   0.213  0.00  0.00    -0.284 OA
ATOM      5  C10 <0> d   1       7.093   0.961   0.243  0.00  0.00     0.051 A 
ATOM      6  C11 <0> d   1       8.480   0.860   0.353  0.00  0.00     0.021 A 
ATOM      7  C12 <0> d   1       9.071  -0.370   0.388  0.00  0.00     0.038 A 
ATOM      8  C13 <0> d   1       8.295  -1.527   0.316  0.00  0.00     0.082 A 
ATOM      9  C14 <0> d   1       6.918  -1.440   0.208  0.00  0.00     0.038 A 
ATOM     10  C15 <0> d   1       6.300  -0.195   0.168  0.00  0.00     0.101 A 
ATOM     11  O2  <0> d   1       4.998   0.150   0.071  0.00  0.00    -0.305 OA
ATOM     12  C16 <0> d   1       6.068  -2.683   0.136  0.00  0.00     0.319 C 
ATOM     13  N1  <0> d   1       6.909  -3.836  -0.218  0.00  0.00     0.117 N 
ATOM     14  C17 <0> d   1       8.102  -3.876   0.643  0.00  0.00     0.447 C 
ATOM     15  O3  <0> d   1       8.914  -2.736   0.351  0.00  0.00    -0.321 OA
ENDROOT
BRANCH   1  16
ATOM     16  C3  <0> d   1       2.387   1.407  -0.009  0.00  0.00    -0.032 A 
ATOM     17  C2  <0> d   1       2.397   0.008  -0.035  0.00  0.00     0.011 A 
ATOM     18  C1  <0> d   1       1.207  -0.687  -0.021  0.00  0.00     0.002 A 
ATOM     19  C6  <0> d   1       0.003  -0.005   0.017  0.00  0.00     0.019 A 
ATOM     20  C5  <0> d   1      -0.017   1.380   0.043  0.00  0.00     0.011 A 
ATOM     21  C4  <0> d   1       1.166   2.090   0.031  0.00  0.00     0.030 A 
ATOM     22 Br1  <0> d   1      -1.668   2.299   0.096  0.00  0.00    -0.051 Br
ENDBRANCH   1  16
BRANCH  13  23
ATOM     23  C18 <0> d   1       6.149  -5.090  -0.124  0.00  0.00     0.305 C 
BRANCH  23  24
ATOM     24  C19 <0> d   1       6.970  -6.229  -0.732  0.00  0.00     0.302 C 
BRANCH  24  25
ATOM     25  N2  <0> d   1       6.210  -7.483  -0.638  0.00  0.00     0.094 N 
ATOM     26  C23 <0> d   1       6.856  -8.549  -1.418  0.00  0.00     0.298 C 
ATOM     27  C22 <0> d   1       6.002  -9.818  -1.342  0.00  0.00     0.198 C 
ATOM     28  O4  <0> d   1       5.822 -10.183   0.029  0.00  0.00    -0.388 OA
ATOM     29  C21 <0> d   1       5.195  -9.168   0.818  0.00  0.00     0.198 C 
ATOM     30  C20 <0> d   1       6.041  -7.893   0.763  0.00  0.00     0.298 C 
ENDBRANCH  24  25
ENDBRANCH  23  24
ENDBRANCH  13  23
TORSDOF 4
