REMARK  8 active torsions:
REMARK  status: ('A' for Active; 'I' for Inactive)
REMARK    1  A    between atoms: C4_4  and  C7_7 
REMARK    2  A    between atoms: C8_8  and  C9_9 
REMARK    3  A    between atoms: C15_16  and  O4_30 
REMARK    4  A    between atoms: C16_17  and  C18_20 
REMARK    5  A    between atoms: C18_20  and  N1_21 
REMARK    6  A    between atoms: N2_24  and  C23_27 
REMARK    7  A    between atoms: C23_27  and  C24_28 
REMARK    8  A    between atoms: C24_28  and  O3_29 
ROOT
ATOM      1  C9  <0> d   1       4.944  -2.716  -0.062  0.00  0.00     0.041 C 
ATOM      2  C10 <0> d   1       4.967  -4.081  -0.069  0.00  0.00     0.127 A 
ATOM      3  C11 <0> d   1       6.166  -4.927  -0.080  0.00  0.00     0.218 A 
ATOM      4  O1  <0> d   1       7.332  -4.569  -0.085  0.00  0.00    -0.284 OA
ATOM      5  C12 <0> d   1       5.646  -6.306  -0.084  0.00  0.00     0.051 A 
ATOM      6  C13 <0> d   1       6.260  -7.559  -0.094  0.00  0.00     0.021 A 
ATOM      7  C14 <0> d   1       5.497  -8.692  -0.096  0.00  0.00     0.038 A 
ATOM      8  C15 <0> d   1       4.108  -8.600  -0.087  0.00  0.00     0.076 A 
ATOM      9  C16 <0> d   1       3.484  -7.363  -0.078  0.00  0.00     0.038 A 
ATOM     10  C17 <0> d   1       4.246  -6.200  -0.076  0.00  0.00     0.101 A 
ATOM     11  O2  <0> d   1       3.889  -4.898  -0.062  0.00  0.00    -0.305 OA
ENDROOT
BRANCH   9  12
ATOM     12  C18 <0> d   1       1.979  -7.278  -0.070  0.00  0.00     0.317 C 
BRANCH  12  13
ATOM     13  N1  <0> d   1       1.497  -7.257   1.318  0.00  0.00     0.096 N 
ATOM     14  C22 <0> d   1       0.064  -6.938   1.373  0.00  0.00     0.303 C 
ATOM     15  C21 <0> d   1      -0.380  -6.848   2.834  0.00  0.00     0.302 C 
ATOM     16  N2  <0> d   1      -0.102  -8.124   3.507  0.00  0.00     0.093 N 
ATOM     17  C20 <0> d   1       1.331  -8.444   3.453  0.00  0.00     0.302 C 
ATOM     18  C19 <0> d   1       1.776  -8.534   1.991  0.00  0.00     0.303 C 
BRANCH  16  19
ATOM     19  C23 <0> d   1      -0.584  -8.104   4.895  0.00  0.00     0.298 C 
BRANCH  19  20
ATOM     20  C24 <0> d   1      -2.111  -8.018   4.903  0.00  0.00     0.194 C 
BRANCH  20  21
ATOM     21  O3  <0> d   1      -2.659  -9.207   4.330  0.00  0.00    -0.399 OA
ATOM     22  H25 <0> d   1      -3.625  -9.222   4.303  0.00  0.00     0.209 HD
ENDBRANCH  20  21
ENDBRANCH  19  20
ENDBRANCH  16  19
ENDBRANCH  12  13
ENDBRANCH   9  12
BRANCH   8  23
ATOM     23  O4  <0> d   1       3.358  -9.731  -0.089  0.00  0.00    -0.360 OA
ATOM     24  H26 <0> d   1       3.146 -10.064   0.794  0.00  0.00     0.217 HD
ENDBRANCH   8  23
BRANCH   1  25
ATOM     25  C8  <0> d   1       3.713  -2.033  -0.045  0.00  0.00     0.004 C 
ATOM     26  C7  <0> d   1       3.690  -0.678  -0.038  0.00  0.00     0.011 C 
BRANCH  26  27
ATOM     27  C4  <0> d   1       2.405   0.035  -0.021  0.00  0.00    -0.036 A 
ATOM     28  C3  <0> d   1       2.377   1.435  -0.013  0.00  0.00     0.011 A 
ATOM     29  C2  <0> d   1       1.168   2.096   0.002  0.00  0.00     0.001 A 
ATOM     30  C1  <0> d   1      -0.017   1.380   0.010  0.00  0.00     0.000 A 
ATOM     31  C6  <0> d   1       0.002  -0.004   0.002  0.00  0.00     0.001 A 
ATOM     32  C5  <0> d   1       1.203  -0.681  -0.013  0.00  0.00     0.011 A 
ENDBRANCH  26  27
ENDBRANCH   1  25
TORSDOF 8
