REMARK  6 active torsions:
REMARK  status: ('A' for Active; 'I' for Inactive)
REMARK    1  A    between atoms: C2_2  and  C4_4 
REMARK    2  A    between atoms: C4_4  and  O1_5 
REMARK    3  A    between atoms: O1_5  and  C5_6 
REMARK    4  A    between atoms: C8_9  and  C11_13 
REMARK    5  A    between atoms: C9_10  and  O2_12 
REMARK    6  A    between atoms: C12_14  and  C14_19 
ROOT
ATOM      1  C5  <0> d   1      -0.269  -3.743  -1.662  0.00  0.00     0.071 A 
ATOM      2  C6  <0> d   1      -0.392  -3.011  -2.836  0.00  0.00     0.038 A 
ATOM      3  C7  <0> d   1      -0.318  -3.643  -4.059  0.00  0.00     0.019 A 
ATOM      4  C8  <0> d   1      -0.118  -5.024  -4.118  0.00  0.00     0.026 A 
ATOM      5  C9  <0> d   1       0.006  -5.760  -2.933  0.00  0.00     0.081 A 
ATOM      6  C10 <0> d   1      -0.065  -5.114  -1.711  0.00  0.00     0.074 A 
ENDROOT
BRANCH   4   7
ATOM      7  C11 <0> d   1      -0.038  -5.705  -5.426  0.00  0.00     0.075 A 
ATOM      8  N2  <0> d   1      -1.046  -5.838  -6.333  0.00  0.00    -0.277 N 
ATOM      9  N1  <0> d   1      -0.549  -6.547  -7.433  0.00  0.00    -0.186 NA
ATOM     10  H1  <0> d   1      -1.950  -5.500  -6.235  0.00  0.00     0.189 HD
ATOM     11  C13 <0> d   1       0.704  -6.847  -7.218  0.00  0.00     0.153 A 
ATOM     12  C12 <0> d   1       1.076  -6.337  -5.961  0.00  0.00     0.022 A 
BRANCH  12  13
ATOM     13  C14 <0> d   1       2.411  -6.452  -5.327  0.00  0.00    -0.022 A 
ATOM     14  C19 <0> d   1       2.992  -7.706  -5.142  0.00  0.00     0.014 A 
ATOM     15  C18 <0> d   1       4.237  -7.808  -4.555  0.00  0.00     0.020 A 
ATOM     16  C17 <0> d   1       4.904  -6.668  -4.140  0.00  0.00     0.011 A 
ATOM     17  C16 <0> d   1       4.330  -5.421  -4.317  0.00  0.00     0.020 A 
ATOM     18 Br1  <0> d   1       6.606  -6.815  -3.330  0.00  0.00    -0.051 Br
ATOM     19  C15 <0> d   1       3.088  -5.308  -4.907  0.00  0.00     0.014 A 
ENDBRANCH  12  13
ENDBRANCH   4   7
BRANCH   5  20
ATOM     20  O2  <0> d   1       0.201  -7.104  -2.982  0.00  0.00    -0.360 OA
ATOM     21  H12 <0> d   1       1.131  -7.365  -3.010  0.00  0.00     0.217 HD
ENDBRANCH   5  20
BRANCH   1  22
ATOM     22  O1  <0> d   1      -0.344  -3.112  -0.461  0.00  0.00    -0.347 OA
BRANCH  22  23
ATOM     23  C4  <0> d   1      -0.555  -1.699  -0.481  0.00  0.00     0.208 C 
BRANCH  23  24
ATOM     24  C2  <0> d   1      -0.610  -1.179   0.932  0.00  0.00    -0.069 C 
ATOM     25  C1  <0> d   1      -0.826   0.291   1.185  0.00  0.00     0.044 C 
ATOM     26  C3  <0> d   1      -0.470  -2.003   1.940  0.00  0.00     0.016 C 
ENDBRANCH  23  24
ENDBRANCH  22  23
ENDBRANCH   1  22
TORSDOF 6
