REMARK  5 active torsions:
REMARK  status: ('A' for Active; 'I' for Inactive)
REMARK    1  A    between atoms: O1_2  and  C2_3 
REMARK    2  A    between atoms: C5_6  and  C9_11 
REMARK    3  A    between atoms: C7_8  and  O2_9 
REMARK    4  A    between atoms: C17_21  and  C18_22 
REMARK    5  A    between atoms: C18_22  and  N1_23 
ROOT
ATOM      1  C9  <0> d   1       6.814  -2.778  -0.289  0.00  0.00     0.048 A 
ATOM      2  C10 <0> d   1       5.503  -3.003  -0.015  0.00  0.00     0.159 A 
ATOM      3  O3  <0> d   1       4.766  -2.161   0.715  0.00  0.00    -0.320 OA
ATOM      4  C11 <0> d   1       5.252  -1.019   1.242  0.00  0.00     0.100 A 
ATOM      5  C12 <0> d   1       6.594  -0.656   1.034  0.00  0.00     0.050 A 
ATOM      6  C13 <0> d   1       7.445  -1.552   0.229  0.00  0.00     0.197 A 
ATOM      7  O4  <0> d   1       8.618  -1.297   0.015  0.00  0.00    -0.286 OA
ATOM      8  C14 <0> d   1       7.100   0.522   1.584  0.00  0.00     0.021 A 
ATOM      9  C15 <0> d   1       6.284   1.329   2.324  0.00  0.00     0.041 A 
ATOM     10  C16 <0> d   1       4.952   0.981   2.532  0.00  0.00     0.118 A 
ATOM     11  C17 <0> d   1       4.435  -0.185   1.993  0.00  0.00     0.039 A 
ATOM     12  O5  <0> d   1       4.152   1.792   3.271  0.00  0.00    -0.191 OA
ENDROOT
BRANCH   1  13
ATOM     13  C5  <0> d   1       7.592  -3.742  -1.104  0.00  0.00    -0.017 A 
ATOM     14  C4  <0> d   1       8.349  -3.292  -2.184  0.00  0.00     0.015 A 
ATOM     15  C3  <0> d   1       9.073  -4.191  -2.942  0.00  0.00     0.040 A 
ATOM     16  C2  <0> d   1       9.050  -5.541  -2.631  0.00  0.00     0.101 A 
ATOM     17  C7  <0> d   1       8.296  -5.997  -1.552  0.00  0.00     0.102 A 
ATOM     18  C6  <0> d   1       7.572  -5.099  -0.787  0.00  0.00     0.052 A 
BRANCH  16  19
ATOM     19  O1  <0> d   1       9.764  -6.423  -3.380  0.00  0.00    -0.353 OA
ATOM     20  C1  <0> d   1      10.516  -5.888  -4.471  0.00  0.00     0.210 C 
ENDBRANCH  16  19
BRANCH  17  21
ATOM     21  O2  <0> d   1       8.274  -7.322  -1.249  0.00  0.00    -0.353 OA
ATOM     22  C8  <0> d   1       7.480  -7.718  -0.129  0.00  0.00     0.210 C 
ENDBRANCH  17  21
ENDBRANCH   1  13
BRANCH  11  23
ATOM     23  C18 <0> d   1       2.991  -0.550   2.226  0.00  0.00     0.279 C 
BRANCH  23  24
ATOM     24  N1  <0> d   1       2.163   0.021   1.155  0.00  0.00    -0.067 N 
ATOM     25  C23 <0> d   1       2.171   1.488   1.210  0.00  0.00     0.235 C 
ATOM     26  C22 <0> d   1       1.421   2.049  -0.001  0.00  0.00     0.028 C 
ATOM     27  C21 <0> d   1      -0.019   1.527   0.010  0.00  0.00     0.003 C 
ATOM     28  C20 <0> d   1       0.002  -0.004   0.002  0.00  0.00     0.028 C 
ATOM     29  C19 <0> d   1       0.793  -0.505   1.212  0.00  0.00     0.235 C 
ATOM     30  H25 <0> d   1       2.598  -0.281   0.191  0.00  0.00     0.280 HD
ENDBRANCH  23  24
ENDBRANCH  11  23
TORSDOF 5
