REMARK  5 active torsions:
REMARK  status: ('A' for Active; 'I' for Inactive)
REMARK    1  A    between atoms: C3_3  and  O4_29 
REMARK    2  A    between atoms: C4_4  and  C18_21 
REMARK    3  A    between atoms: C9_10  and  C10_11 
REMARK    4  A    between atoms: C13_14  and  O2_17 
REMARK    5  A    between atoms: C18_21  and  N1_22 
ROOT
ATOM      1  C1  <0> d   1       1.535   7.608  -3.434  0.00  0.00     0.054 C 
ATOM      2  C2  <0> d   1       1.303   8.842  -2.601  0.00  0.00     0.007 A 
ATOM      3  C3  <0> d   1       1.949  10.025  -2.921  0.00  0.00     0.082 A 
ATOM      4  C4  <0> d   1       1.744  11.172  -2.159  0.00  0.00     0.002 A 
ATOM      5  C5  <0> d   1       0.900  11.141  -1.085  0.00  0.00     0.030 A 
ATOM      6  C6  <0> d   1       0.242   9.957  -0.752  0.00  0.00     0.052 A 
ATOM      7  C7  <0> d   1       0.441   8.793  -1.512  0.00  0.00     0.099 A 
ATOM      8  O1  <0> d   1      -0.291   7.782  -0.998  0.00  0.00    -0.305 OA
ATOM      9  C8  <0> d   1      -1.005   8.177   0.083  0.00  0.00     0.127 A 
ATOM     10  C9  <0> d   1      -1.839   7.400   0.821  0.00  0.00     0.053 C 
ATOM     11  C17 <0> d   1      -0.708   9.597   0.317  0.00  0.00     0.218 A 
ATOM     12  O3  <0> d   1      -1.149  10.317   1.196  0.00  0.00    -0.284 OA
ENDROOT
BRANCH   4  13
ATOM     13  C18 <0> d   1       2.455  12.451  -2.520  0.00  0.00     0.276 C 
BRANCH  13  14
ATOM     14  N1  <0> d   1       3.873  12.343  -2.154  0.00  0.00    -0.064 N 
ATOM     15  C22 <0> d   1       4.673  13.371  -2.835  0.00  0.00     0.265 C 
ATOM     16  C21 <0> d   1       6.151  13.175  -2.491  0.00  0.00     0.299 C 
ATOM     17  N2  <0> d   1       6.327  13.254  -1.034  0.00  0.00     0.087 N 
ATOM     18  C20 <0> d   1       5.528  12.226  -0.353  0.00  0.00     0.299 C 
ATOM     19  C23 <0> d   1       7.746  13.146  -0.669  0.00  0.00     0.310 C 
ATOM     20  C19 <0> d   1       4.049  12.422  -0.698  0.00  0.00     0.265 C 
ATOM     21  H27 <0> d   1       4.232  11.358  -2.487  0.00  0.00     0.280 HD
ENDBRANCH  13  14
ENDBRANCH   4  13
BRANCH   3  22
ATOM     22  O4  <0> d   1       2.790  10.066  -3.985  0.00  0.00    -0.359 OA
ATOM     23  H26 <0> d   1       3.306  11.003  -4.243  0.00  0.00     0.217 HD
ENDBRANCH   3  22
BRANCH  10  24
ATOM     24  C10 <0> d   1      -2.127   6.024   0.398  0.00  0.00    -0.033 A 
ATOM     25  C15 <0> d   1      -2.841   5.164   1.242  0.00  0.00     0.014 A 
ATOM     26  C14 <0> d   1      -3.112   3.876   0.838  0.00  0.00     0.037 A 
ATOM     27  C13 <0> d   1      -2.670   3.426  -0.401  0.00  0.00     0.068 A 
ATOM     28  C12 <0> d   1      -1.960   4.275  -1.243  0.00  0.00     0.037 A 
ATOM     29  C11 <0> d   1      -1.688   5.566  -0.851  0.00  0.00     0.014 A 
BRANCH  27  30
ATOM     30  O2  <0> d   1      -2.936   2.154  -0.792  0.00  0.00    -0.356 OA
ATOM     31  C16 <0> d   1      -3.668   1.334   0.121  0.00  0.00     0.210 C 
ENDBRANCH  27  30
ENDBRANCH  10  24
TORSDOF 5
