REMARK  4 active torsions:
REMARK  status: ('A' for Active; 'I' for Inactive)
REMARK    1  A    between atoms: N2_5  and  C6_8 
REMARK    2  A    between atoms: C6_8  and  C7_9 
REMARK    3  A    between atoms: C8_10  and  O5_31 
REMARK    4  A    between atoms: C14_17  and  C15_18 
ROOT
ATOM      1  C7  <0> d   1       0.012  -3.724   2.757  0.00  0.00     0.038 A 
ATOM      2  C8  <0> d   1       1.367  -3.773   3.041  0.00  0.00     0.076 A 
ATOM      3  C9  <0> d   1       1.821  -4.313   4.241  0.00  0.00     0.038 A 
ATOM      4  C10 <0> d   1       0.929  -4.801   5.154  0.00  0.00     0.021 A 
ATOM      5  C11 <0> d   1      -0.439  -4.758   4.882  0.00  0.00     0.051 A 
ATOM      6  C12 <0> d   1      -0.908  -4.212   3.677  0.00  0.00     0.101 A 
ATOM      7  O1  <0> d   1      -2.257  -4.274   3.643  0.00  0.00    -0.305 OA
ATOM      8  C13 <0> d   1      -2.763  -4.834   4.768  0.00  0.00     0.128 A 
ATOM      9  C14 <0> d   1      -4.077  -5.039   5.040  0.00  0.00     0.055 C 
ATOM     10  C23 <0> d   1      -1.631  -5.189   5.635  0.00  0.00     0.218 A 
ATOM     11  O4  <0> d   1      -1.669  -5.713   6.735  0.00  0.00    -0.284 OA
ENDROOT
BRANCH   9  12
ATOM     12  C15 <0> d   1      -5.105  -4.505   4.139  0.00  0.00     0.002 A 
ATOM     13  C20 <0> d   1      -6.438  -4.398   4.572  0.00  0.00     0.090 A 
ATOM     14  C19 <0> d   1      -7.398  -3.882   3.719  0.00  0.00     0.002 A 
ATOM     15  O2  <0> d   1      -6.771  -4.801   5.825  0.00  0.00    -0.325 OA
ATOM     16  C18 <0> d   1      -7.048  -3.491   2.439  0.00  0.00     0.036 A 
ATOM     17  C22 <0> d   1      -8.830  -3.747   4.173  0.00  0.00     0.212 C 
ATOM     18  C17 <0> d   1      -5.737  -3.603   2.003  0.00  0.00     0.035 A 
ATOM     19  C16 <0> d   1      -4.765  -4.105   2.841  0.00  0.00     0.038 A 
ATOM     20 Cl1  <0> d   1      -5.317  -3.108   0.393  0.00  0.00    -0.084 Cl
ATOM     21  O3  <0> d   1      -9.032  -4.558   5.340  0.00  0.00    -0.362 OA
ATOM     22  C21 <0> d   1      -8.026  -4.347   6.339  0.00  0.00     0.345 C 
ENDBRANCH   9  12
BRANCH   1  23
ATOM     23  C6  <0> d   1      -0.464  -3.138   1.453  0.00  0.00     0.317 C 
BRANCH  23  24
ATOM     24  N2  <0> d   1      -0.692  -1.696   1.620  0.00  0.00     0.096 N 
ATOM     25  C3  <0> d   1      -1.378  -1.132   0.449  0.00  0.00     0.303 C 
ATOM     26  C2  <0> d   1      -1.666   0.350   0.694  0.00  0.00     0.302 C 
ATOM     27  N1  <0> d   1      -0.403   1.057   0.951  0.00  0.00     0.087 N 
ATOM     28  C1  <0> d   1      -0.631   2.498   1.117  0.00  0.00     0.310 C 
ATOM     29  C5  <0> d   1       0.283   0.493   2.122  0.00  0.00     0.302 C 
ATOM     30  C4  <0> d   1       0.571  -0.990   1.877  0.00  0.00     0.303 C 
ENDBRANCH  23  24
ENDBRANCH   1  23
BRANCH   2  31
ATOM     31  O5  <0> d   1       2.261  -3.291   2.140  0.00  0.00    -0.360 OA
ATOM     32  H23 <0> d   1       2.470  -2.354   2.256  0.00  0.00     0.217 HD
ENDBRANCH   2  31
TORSDOF 4
