REMARK  5 active torsions:
REMARK  status: ('A' for Active; 'I' for Inactive)
REMARK    1  A    between atoms: C2_2  and  C5_5 
REMARK    2  A    between atoms: C8_8  and  C11_11 
REMARK    3  A    between atoms: C13_13  and  O1_14 
REMARK    4  A    between atoms: C17_18  and  N1_22 
REMARK       I    between atoms: N1_22  and  C20_23 
REMARK    5  A    between atoms: C20_23  and  C21_25 
ROOT
ATOM      1  C11 <0> d   1       3.819  -4.632   0.194  0.00  0.00     0.089 A 
ATOM      2  C12 <0> d   1       5.004  -3.971   0.282  0.00  0.00     0.075 A 
ATOM      3  C13 <0> d   1       5.014  -2.556   0.303  0.00  0.00     0.081 A 
ATOM      4  C14 <0> d   1       3.712  -1.868   0.225  0.00  0.00     0.031 A 
ATOM      5  C15 <0> d   1       3.627  -0.475   0.239  0.00  0.00     0.019 A 
ATOM      6  C16 <0> d   1       2.406   0.131   0.160  0.00  0.00     0.030 A 
ATOM      7  C17 <0> d   1       1.243  -0.636   0.077  0.00  0.00     0.037 A 
ATOM      8  C18 <0> d   1       1.312  -2.021   0.062  0.00  0.00     0.067 A 
ATOM      9  C19 <0> d   1       2.547  -2.649   0.136  0.00  0.00     0.091 A 
ATOM     10  O2  <0> d   1       2.640  -3.995   0.124  0.00  0.00    -0.309 OA
ENDROOT
BRANCH   1  11
ATOM     11  C8  <0> d   1       3.830  -6.109   0.174  0.00  0.00    -0.002 A 
ATOM     12  C7  <0> d   1       2.630  -6.818   0.084  0.00  0.00     0.015 A 
ATOM     13  C6  <0> d   1       2.647  -8.197   0.066  0.00  0.00     0.009 A 
ATOM     14  C5  <0> d   1       3.849  -8.878   0.136  0.00  0.00    -0.051 A 
ATOM     15  C10 <0> d   1       5.042  -8.182   0.225  0.00  0.00     0.009 A 
ATOM     16  C9  <0> d   1       5.040  -6.803   0.240  0.00  0.00     0.015 A 
BRANCH  14  17
ATOM     17  C2  <0> d   1       3.860 -10.385   0.115  0.00  0.00    -0.024 C 
ATOM     18  C1  <0> d   1       3.227 -10.881  -1.187  0.00  0.00     0.019 C 
ATOM     19  C3  <0> d   1       5.303 -10.886   0.203  0.00  0.00     0.019 C 
ATOM     20  C4  <0> d   1       3.061 -10.917   1.306  0.00  0.00     0.019 C 
ENDBRANCH  14  17
ENDBRANCH   1  11
BRANCH   3  21
ATOM     21  O1  <0> d   1       6.059  -1.931   0.381  0.00  0.00    -0.360 OA
ATOM     22  H24 <0> d   1       6.041  -0.831   0.395  0.00  0.00     0.217 HD
ENDBRANCH   3  21
BRANCH   7  23
ATOM     23  N1  <0> d   1       0.002  -0.004   0.002  0.00  0.00    -0.323 N 
ATOM     24  C20 <0> d   1      -1.073  -0.558   0.596  0.00  0.00     0.256 C 
ATOM     25  O3  <0> d   1      -0.980  -1.648   1.126  0.00  0.00    -0.267 OA
ATOM     26  H18 <0> d   1      -0.099   0.947  -0.542  0.00  0.00     0.169 HD
BRANCH  24  27
ATOM     27  C21 <0> d   1      -2.364   0.162   0.609  0.00  0.00     0.032 A 
ATOM     28  C26 <0> d   1      -3.479  -0.409   1.224  0.00  0.00     0.017 A 
ATOM     29  C25 <0> d   1      -4.681   0.268   1.232  0.00  0.00     0.001 A 
ATOM     30  C24 <0> d   1      -4.782   1.511   0.633  0.00  0.00     0.000 A 
ATOM     31  C23 <0> d   1      -3.680   2.083   0.022  0.00  0.00     0.001 A 
ATOM     32  C22 <0> d   1      -2.471   1.419   0.012  0.00  0.00     0.017 A 
ENDBRANCH  24  27
ENDBRANCH   7  23
TORSDOF 5
