REMARK  7 active torsions:
REMARK  status: ('A' for Active; 'I' for Inactive)
REMARK    1  A    between atoms: N2_5  and  C6_8 
REMARK    2  A    between atoms: C6_8  and  C7_9 
REMARK    3  A    between atoms: C8_10  and  O6_32 
REMARK    4  A    between atoms: C14_17  and  C15_18 
REMARK    5  A    between atoms: C17_20  and  O4_28 
REMARK    6  A    between atoms: C18_21  and  O3_26 
REMARK    7  A    between atoms: C19_22  and  O2_24 
ROOT
ATOM      1  C7  <0> d   1       1.971  -6.574   1.027  0.00  0.00     0.038 A 
ATOM      2  C8  <0> d   1       3.226  -7.051   0.685  0.00  0.00     0.076 A 
ATOM      3  C9  <0> d   1       4.052  -7.626   1.647  0.00  0.00     0.038 A 
ATOM      4  C10 <0> d   1       3.630  -7.726   2.943  0.00  0.00     0.021 A 
ATOM      5  C11 <0> d   1       2.368  -7.250   3.302  0.00  0.00     0.051 A 
ATOM      6  C12 <0> d   1       1.529  -6.663   2.341  0.00  0.00     0.101 A 
ATOM      7  O1  <0> d   1       0.373  -6.276   2.923  0.00  0.00    -0.305 OA
ATOM      8  C13 <0> d   1       0.357  -6.556   4.247  0.00  0.00     0.127 A 
ATOM      9  C14 <0> d   1      -0.657  -6.293   5.111  0.00  0.00     0.053 C 
ATOM     10  C24 <0> d   1       1.632  -7.208   4.578  0.00  0.00     0.218 A 
ATOM     11  O5  <0> d   1       2.003  -7.612   5.667  0.00  0.00    -0.284 OA
ENDROOT
BRANCH   9  12
ATOM     12  C15 <0> d   1      -1.942  -5.795   4.604  0.00  0.00    -0.028 A 
ATOM     13  C20 <0> d   1      -2.942  -5.394   5.499  0.00  0.00     0.051 A 
ATOM     14  C19 <0> d   1      -4.147  -4.920   5.019  0.00  0.00     0.105 A 
ATOM     15  C18 <0> d   1      -4.373  -4.851   3.646  0.00  0.00     0.135 A 
ATOM     16  C17 <0> d   1      -3.383  -5.254   2.752  0.00  0.00     0.105 A 
ATOM     17  C16 <0> d   1      -2.172  -5.723   3.225  0.00  0.00     0.051 A 
BRANCH  14  18
ATOM     18  O2  <0> d   1      -5.116  -4.525   5.887  0.00  0.00    -0.353 OA
ATOM     19  C21 <0> d   1      -4.817  -4.622   7.281  0.00  0.00     0.210 C 
ENDBRANCH  14  18
BRANCH  15  20
ATOM     20  O3  <0> d   1      -5.562  -4.390   3.177  0.00  0.00    -0.351 OA
ATOM     21  C22 <0> d   1      -6.596  -5.354   2.970  0.00  0.00     0.210 C 
ENDBRANCH  15  20
BRANCH  16  22
ATOM     22  O4  <0> d   1      -3.608  -5.184   1.413  0.00  0.00    -0.353 OA
ATOM     23  C23 <0> d   1      -2.597  -5.720   0.556  0.00  0.00     0.210 C 
ENDBRANCH  16  22
ENDBRANCH   9  12
BRANCH   1  24
ATOM     24  C6  <0> d   1       1.088  -5.954  -0.025  0.00  0.00     0.317 C 
BRANCH  24  25
ATOM     25  N2  <0> d   1       1.474  -4.550  -0.221  0.00  0.00     0.096 N 
ATOM     26  C3  <0> d   1       0.916  -4.021  -1.474  0.00  0.00     0.303 C 
ATOM     27  C2  <0> d   1       1.404  -2.586  -1.681  0.00  0.00     0.302 C 
ATOM     28  N1  <0> d   1       0.994  -1.761  -0.536  0.00  0.00     0.087 N 
ATOM     29  C1  <0> d   1       1.379  -0.357  -0.733  0.00  0.00     0.310 C 
ATOM     30  C5  <0> d   1       1.552  -2.290   0.717  0.00  0.00     0.302 C 
ATOM     31  C4  <0> d   1       1.063  -3.725   0.924  0.00  0.00     0.303 C 
ENDBRANCH  24  25
ENDBRANCH   1  24
BRANCH   2  32
ATOM     32  O6  <0> d   1       3.654  -6.957  -0.600  0.00  0.00    -0.360 OA
ATOM     33  H28 <0> d   1       4.127  -6.138  -0.798  0.00  0.00     0.217 HD
ENDBRANCH   2  32
TORSDOF 7
