REMARK  5 active torsions:
REMARK  status: ('A' for Active; 'I' for Inactive)
REMARK    1  A    between atoms: N1_4  and  C7_9 
REMARK    2  A    between atoms: C7_9  and  C8_10 
REMARK    3  A    between atoms: C8_10  and  O2_11 
REMARK    4  A    between atoms: O2_11  and  C9_12 
REMARK    5  A    between atoms: C14_18  and  C16_22 
ROOT
ATOM      1  C9  <0> d   1      -2.552  -6.058   0.938  0.00  0.00     0.072 A 
ATOM      2  C10 <0> d   1      -2.696  -6.779  -0.231  0.00  0.00     0.092 A 
ATOM      3  C11 <0> d   1      -2.498  -8.164  -0.222  0.00  0.00     0.187 A 
ATOM      4  O3  <0> d   1      -2.623  -8.814  -1.254  0.00  0.00    -0.287 OA
ATOM      5  C12 <0> d   1      -2.151  -8.809   0.994  0.00  0.00     0.043 A 
ATOM      6  C13 <0> d   1      -1.946 -10.209   1.025  0.00  0.00     0.074 A 
ATOM      7  C14 <0> d   1      -1.549 -11.022  -0.060  0.00  0.00     0.020 A 
ATOM      8  C15 <0> d   1      -1.466 -12.320   0.396  0.00  0.00     0.121 A 
ATOM      9  N2  <0> d   1      -1.796 -12.334   1.714  0.00  0.00    -0.310 N 
ATOM     10  N3  <0> d   1      -2.090 -11.025   2.115  0.00  0.00    -0.299 N 
ATOM     11  C22 <0> d   1      -2.012  -8.046   2.164  0.00  0.00     0.020 A 
ATOM     12  C23 <0> d   1      -2.205  -6.699   2.130  0.00  0.00     0.038 A 
ATOM     13  H19 <0> d   1      -1.819 -13.119   2.283  0.00  0.00     0.186 HD
ATOM     14  H20 <0> d   1      -2.351 -10.746   3.006  0.00  0.00     0.187 HD
ENDROOT
BRANCH   7  15
ATOM     15  C16 <0> d   1      -1.272 -10.561  -1.442  0.00  0.00    -0.022 A 
ATOM     16  C21 <0> d   1      -2.078 -10.987  -2.497  0.00  0.00     0.012 A 
ATOM     17  C20 <0> d   1      -1.819 -10.552  -3.780  0.00  0.00     0.001 A 
ATOM     18  C19 <0> d   1      -0.754  -9.702  -4.023  0.00  0.00     0.000 A 
ATOM     19  C18 <0> d   1       0.052  -9.280  -2.981  0.00  0.00     0.001 A 
ATOM     20  C17 <0> d   1      -0.201  -9.705  -1.693  0.00  0.00     0.012 A 
ENDBRANCH   7  15
BRANCH   1  21
ATOM     21  O2  <0> d   1      -2.744  -4.714   0.927  0.00  0.00    -0.349 OA
BRANCH  21  22
ATOM     22  C8  <0> d   1      -3.097  -4.119  -0.323  0.00  0.00     0.203 C 
BRANCH  22  23
ATOM     23  C7  <0> d   1      -3.270  -2.610  -0.138  0.00  0.00     0.261 C 
BRANCH  23  24
ATOM     24  N1  <0> d   1      -1.982  -2.011   0.235  0.00  0.00    -0.064 N 
ATOM     25  C3  <0> d   1      -1.038  -2.145  -0.883  0.00  0.00     0.266 C 
ATOM     26  C2  <0> d   1       0.304  -1.520  -0.492  0.00  0.00     0.143 C 
ATOM     27  C1  <0> d   1       1.270  -1.603  -1.676  0.00  0.00     0.041 C 
ATOM     28  O1  <0> d   1       0.102  -0.150  -0.136  0.00  0.00    -0.378 OA
ATOM     29  C5  <0> d   1      -0.831   0.033   0.933  0.00  0.00     0.143 C 
ATOM     30  C4  <0> d   1      -2.174  -0.588   0.545  0.00  0.00     0.266 C 
ATOM     31  C6  <0> d   1      -0.299  -0.647   2.196  0.00  0.00     0.041 C 
ATOM     32  H28 <0> d   1      -1.612  -2.486   1.045  0.00  0.00     0.280 HD
ENDBRANCH  23  24
ENDBRANCH  22  23
ENDBRANCH  21  22
ENDBRANCH   1  21
TORSDOF 5
