REMARK  5 active torsions:
REMARK  status: ('A' for Active; 'I' for Inactive)
REMARK    1  A    between atoms: C2_2  and  C3_3 
REMARK    2  A    between atoms: C7_8  and  C17_22 
REMARK    3  A    between atoms: C10_12  and  C12_15 
REMARK    4  A    between atoms: C11_13  and  O3_14 
REMARK    5  A    between atoms: C12_15  and  N1_16 
ROOT
ATOM      1  C3  <0> d   1       1.857  -1.607  -1.134  0.00  0.00    -0.024 A 
ATOM      2  C4  <0> d   1       0.939  -1.782  -2.131  0.00  0.00     0.028 A 
ATOM      3  C5  <0> d   1       1.371  -1.969  -3.443  0.00  0.00     0.050 A 
ATOM      4  C6  <0> d   1       0.414  -2.177  -4.546  0.00  0.00     0.200 C 
ATOM      5  O1  <0> d   1      -0.780  -1.972  -4.413  0.00  0.00    -0.286 OA
ATOM      6  C7  <0> d   1       0.991  -2.648  -5.822  0.00  0.00     0.081 C 
ATOM      7  C8  <0> d   1       2.345  -2.602  -5.970  0.00  0.00     0.162 C 
ATOM      8  O2  <0> d   1       3.158  -2.138  -5.021  0.00  0.00    -0.320 OA
ATOM      9  C9  <0> d   1       2.744  -1.972  -3.749  0.00  0.00     0.100 A 
ATOM     10  C10 <0> d   1       3.663  -1.797  -2.724  0.00  0.00     0.038 A 
ATOM     11  C11 <0> d   1       3.219  -1.610  -1.425  0.00  0.00     0.082 A 
ENDROOT
BRANCH   6  12
ATOM     12  C17 <0> d   1       0.126  -3.154  -6.905  0.00  0.00     0.124 A 
ATOM     13  N3  <0> d   1       0.107  -2.676  -8.188  0.00  0.00    -0.335 N 
ATOM     14  C23 <0> d   1      -0.831  -3.413  -8.886  0.00  0.00     0.062 A 
ATOM     15  C24 <0> d   1       0.930  -1.588  -8.722  0.00  0.00     0.158 C 
ATOM     16  C18 <0> d   1      -1.368  -4.334  -7.970  0.00  0.00     0.060 A 
ATOM     17  C22 <0> d   1      -1.286  -3.398 -10.197  0.00  0.00     0.032 A 
ATOM     18  N2  <0> d   1      -0.746  -4.127  -6.783  0.00  0.00    -0.340 N 
ATOM     19  C19 <0> d   1      -2.358  -5.226  -8.392  0.00  0.00     0.032 A 
ATOM     20  H26 <0> d   1      -0.919  -4.623  -5.967  0.00  0.00     0.167 HD
ATOM     21  C20 <0> d   1      -2.795  -5.196  -9.687  0.00  0.00     0.002 A 
ATOM     22  C21 <0> d   1      -2.265  -4.287 -10.591  0.00  0.00     0.002 A 
ENDBRANCH   6  12
BRANCH   1  23
ATOM     23  C2  <0> d   1       1.394  -1.404   0.286  0.00  0.00     0.037 C 
ATOM     24  C1  <0> d   1       1.313   0.094   0.587  0.00  0.00     0.010 C 
ENDBRANCH   1  23
BRANCH  10  25
ATOM     25  C12 <0> d   1       5.140  -1.804  -3.024  0.00  0.00     0.317 C 
BRANCH  25  26
ATOM     26  N1  <0> d   1       5.585  -0.436  -3.324  0.00  0.00     0.097 N 
ATOM     27  C16 <0> d   1       7.052  -0.362  -3.389  0.00  0.00     0.299 C 
ATOM     28  C15 <0> d   1       7.473   1.087  -3.644  0.00  0.00     0.198 C 
ATOM     29  O4  <0> d   1       6.854   1.554  -4.846  0.00  0.00    -0.388 OA
ATOM     30  C14 <0> d   1       5.425   1.496  -4.817  0.00  0.00     0.198 C 
ATOM     31  C13 <0> d   1       4.983   0.051  -4.574  0.00  0.00     0.299 C 
ENDBRANCH  25  26
ENDBRANCH  10  25
BRANCH  11  32
ATOM     32  O3  <0> d   1       4.121  -1.433  -0.426  0.00  0.00    -0.359 OA
ATOM     33  H8  <0> d   1       4.408  -2.255  -0.006  0.00  0.00     0.217 HD
ENDBRANCH  11  32
TORSDOF 5
