REMARK  5 active torsions:
REMARK  status: ('A' for Active; 'I' for Inactive)
REMARK    1  A    between atoms: N2_5  and  C6_8 
REMARK    2  A    between atoms: C6_8  and  C7_9 
REMARK    3  A    between atoms: C8_10  and  O4_28 
REMARK    4  A    between atoms: C14_17  and  C15_18 
REMARK    5  A    between atoms: C19_22  and  O2_24 
ROOT
ATOM      1  C7  <0> d   1       2.123  -4.466   1.088  0.00  0.00     0.036 A 
ATOM      2  C8  <0> d   1       3.473  -4.708   0.886  0.00  0.00     0.076 A 
ATOM      3  C9  <0> d   1       4.265  -5.205   1.917  0.00  0.00     0.038 A 
ATOM      4  C10 <0> d   1       3.717  -5.459   3.143  0.00  0.00     0.021 A 
ATOM      5  C11 <0> d   1       2.360  -5.220   3.360  0.00  0.00     0.051 A 
ATOM      6  C12 <0> d   1       1.551  -4.714   2.329  0.00  0.00     0.101 A 
ATOM      7  O1  <0> d   1       0.286  -4.559   2.776  0.00  0.00    -0.305 OA
ATOM      8  C13 <0> d   1       0.161  -4.927   4.073  0.00  0.00     0.127 A 
ATOM      9  C14 <0> d   1      -0.976  -4.890   4.810  0.00  0.00     0.053 C 
ATOM     10  C22 <0> d   1       1.482  -5.384   4.534  0.00  0.00     0.218 A 
ATOM     11  O3  <0> d   1       1.786  -5.794   5.640  0.00  0.00    -0.284 OA
ENDROOT
BRANCH   1  12
ATOM     12  C6  <0> d   1       1.278  -3.928  -0.037  0.00  0.00     0.279 C 
BRANCH  12  13
ATOM     13  N2  <0> d   1       1.301  -2.459  -0.007  0.00  0.00    -0.064 N 
ATOM     14  C3  <0> d   1       0.576  -1.935  -1.173  0.00  0.00     0.265 C 
ATOM     15  C2  <0> d   1       0.616  -0.405  -1.152  0.00  0.00     0.299 C 
ATOM     16  N1  <0> d   1      -0.002   0.081   0.090  0.00  0.00     0.087 N 
ATOM     17  C1  <0> d   1      -0.034   1.550   0.121  0.00  0.00     0.310 C 
ATOM     18  C5  <0> d   1       0.698  -0.456   1.266  0.00  0.00     0.299 C 
ATOM     19  C4  <0> d   1       0.658  -1.985   1.225  0.00  0.00     0.265 C 
ATOM     20  H25 <0> d   1       2.257  -2.137  -0.033  0.00  0.00     0.280 HD
ENDBRANCH  12  13
ENDBRANCH   1  12
BRANCH   2  21
ATOM     21  O4  <0> d   1       4.027  -4.460  -0.328  0.00  0.00    -0.360 OA
ATOM     22  H24 <0> d   1       4.374  -3.562  -0.425  0.00  0.00     0.217 HD
ENDBRANCH   2  21
BRANCH   9  23
ATOM     23  C15 <0> d   1      -2.203  -4.314   4.241  0.00  0.00    -0.031 A 
ATOM     24  C20 <0> d   1      -2.238  -3.920   2.899  0.00  0.00     0.048 A 
ATOM     25  C19 <0> d   1      -3.399  -3.385   2.370  0.00  0.00     0.069 A 
ATOM     26  C18 <0> d   1      -4.521  -3.228   3.173  0.00  0.00     0.037 A 
ATOM     27  C17 <0> d   1      -4.488  -3.610   4.502  0.00  0.00     0.004 A 
ATOM     28  C16 <0> d   1      -3.340  -4.151   5.041  0.00  0.00     0.011 A 
BRANCH  25  29
ATOM     29  O2  <0> d   1      -3.439  -3.007   1.066  0.00  0.00    -0.356 OA
ATOM     30  C21 <0> d   1      -4.668  -2.456   0.587  0.00  0.00     0.210 C 
ENDBRANCH  25  29
ENDBRANCH   9  23
TORSDOF 5
