REMARK  4 active torsions:
REMARK  status: ('A' for Active; 'I' for Inactive)
REMARK    1  A    between atoms: N2_5  and  C6_8 
REMARK    2  A    between atoms: C6_8  and  C7_9 
REMARK    3  A    between atoms: C8_10  and  O3_28 
REMARK    4  A    between atoms: C14_17  and  C15_18 
ROOT
ATOM      1  C7  <0> d   1      -0.006  -0.684  -1.205  0.00  0.00     0.038 A 
ATOM      2  C8  <0> d   1       0.002  -0.004   0.002  0.00  0.00     0.076 A 
ATOM      3  C9  <0> d   1       0.023  -0.700   1.207  0.00  0.00     0.038 A 
ATOM      4  C10 <0> d   1       0.041  -2.067   1.210  0.00  0.00     0.021 A 
ATOM      5  C11 <0> d   1       0.039  -2.765   0.002  0.00  0.00     0.051 A 
ATOM      6  C12 <0> d   1       0.019  -2.073  -1.220  0.00  0.00     0.101 A 
ATOM      7  O1  <0> d   1       0.021  -2.955  -2.243  0.00  0.00    -0.305 OA
ATOM      8  C13 <0> d   1       0.042  -4.236  -1.803  0.00  0.00     0.128 A 
ATOM      9  C14 <0> d   1       0.050  -5.349  -2.578  0.00  0.00     0.056 C 
ATOM     10  C21 <0> d   1       0.055  -4.200  -0.333  0.00  0.00     0.218 A 
ATOM     11  O2  <0> d   1       0.075  -5.146   0.436  0.00  0.00    -0.284 OA
ENDROOT
BRANCH   1  12
ATOM     12  C6  <0> d   1      -0.035   0.082  -2.502  0.00  0.00     0.317 C 
BRANCH  12  13
ATOM     13  N2  <0> d   1       1.340   0.351  -2.943  0.00  0.00     0.096 N 
ATOM     14  C3  <0> d   1       1.359   0.884  -4.313  0.00  0.00     0.300 C 
ATOM     15  C2  <0> d   1       2.809   1.075  -4.763  0.00  0.00     0.264 C 
ATOM     16  N1  <0> d   1       3.491   1.989  -3.836  0.00  0.00    -0.072 N 
ATOM     17  C1  <0> d   1       4.866   2.257  -4.277  0.00  0.00     0.269 C 
ATOM     18  C5  <0> d   1       3.472   1.456  -2.466  0.00  0.00     0.264 C 
ATOM     19  H21 <0> d   1       2.945   2.943  -3.836  0.00  0.00     0.279 HD
ATOM     20  C4  <0> d   1       2.022   1.265  -2.016  0.00  0.00     0.300 C 
ENDBRANCH  12  13
ENDBRANCH   1  12
BRANCH   2  21
ATOM     21  O3  <0> d   1      -0.016   1.353   0.009  0.00  0.00    -0.360 OA
ATOM     22  H20 <0> d   1      -0.010   1.898   0.965  0.00  0.00     0.217 HD
ENDBRANCH   2  21
BRANCH   9  23
ATOM     23  C15 <0> d   1       0.035  -5.226  -4.042  0.00  0.00     0.010 A 
ATOM     24  C20 <0> d   1       0.965  -5.929  -4.818  0.00  0.00     0.046 A 
ATOM     25  C19 <0> d   1       0.943  -5.807  -6.193  0.00  0.00     0.025 A 
ATOM     26 Cl1  <0> d   1       2.143  -6.950  -4.054  0.00  0.00    -0.083 Cl
ATOM     27  C18 <0> d   1       0.005  -4.993  -6.804  0.00  0.00     0.003 A 
ATOM     28  C17 <0> d   1      -0.917  -4.295  -6.045  0.00  0.00     0.025 A 
ATOM     29  C16 <0> d   1      -0.914  -4.409  -4.670  0.00  0.00     0.046 A 
ATOM     30 Cl2  <0> d   1      -2.077  -3.537  -3.721  0.00  0.00    -0.083 Cl
ENDBRANCH   9  23
TORSDOF 4
