REMARK  8 active torsions:
REMARK  status: ('A' for Active; 'I' for Inactive)
REMARK    1  A    between atoms: C2_2  and  O1_3 
REMARK    2  A    between atoms: O1_3  and  C3_4 
REMARK    3  A    between atoms: C3_4  and  C4_6 
REMARK    4  A    between atoms: C5_7  and  C19_26 
REMARK    5  A    between atoms: C10_13  and  O5_25 
REMARK    6  A    between atoms: C11_14  and  C13_17 
REMARK    7  A    between atoms: C13_17  and  N1_18 
REMARK    8  A    between atoms: C24_31  and  O6_32 
ROOT
ATOM      1  C4  <0> d   1       1.454  -2.347  -2.524  0.00  0.00     0.166 C 
ATOM      2  C5  <0> d   1       1.542  -3.716  -2.668  0.00  0.00     0.068 C 
ATOM      3  C6  <0> d   1       2.243  -4.243  -3.864  0.00  0.00     0.199 C 
ATOM      4  O3  <0> d   1       2.173  -5.416  -4.187  0.00  0.00    -0.286 OA
ATOM      5  C7  <0> d   1       3.028  -3.265  -4.638  0.00  0.00     0.050 A 
ATOM      6  C8  <0> d   1       3.932  -3.676  -5.619  0.00  0.00     0.021 A 
ATOM      7  C9  <0> d   1       4.647  -2.744  -6.314  0.00  0.00     0.038 A 
ATOM      8  C10 <0> d   1       4.480  -1.386  -6.045  0.00  0.00     0.076 A 
ATOM      9  C11 <0> d   1       3.585  -0.963  -5.077  0.00  0.00     0.036 A 
ATOM     10  C12 <0> d   1       2.845  -1.897  -4.363  0.00  0.00     0.101 A 
ATOM     11  O4  <0> d   1       1.957  -1.497  -3.432  0.00  0.00    -0.302 OA
ENDROOT
BRANCH   9  12
ATOM     12  C13 <0> d   1       3.416   0.508  -4.797  0.00  0.00     0.279 C 
BRANCH  12  13
ATOM     13  N1  <0> d   1       2.359   1.052  -5.661  0.00  0.00    -0.064 N 
ATOM     14  C17 <0> d   1       2.111   2.455  -5.306  0.00  0.00     0.265 C 
ATOM     15  C16 <0> d   1       0.997   3.017  -6.192  0.00  0.00     0.299 C 
ATOM     16  N2  <0> d   1       1.399   2.914  -7.602  0.00  0.00     0.087 N 
ATOM     17  C15 <0> d   1       1.675   1.517  -7.966  0.00  0.00     0.299 C 
ATOM     18  C18 <0> d   1       0.378   3.496  -8.484  0.00  0.00     0.310 C 
ATOM     19  C14 <0> d   1       2.783   0.968  -7.065  0.00  0.00     0.265 C 
ATOM     20  H29 <0> d   1       1.512   0.518  -5.533  0.00  0.00     0.280 HD
ENDBRANCH  12  13
ENDBRANCH   9  12
BRANCH   8  21
ATOM     21  O5  <0> d   1       5.201  -0.470  -6.740  0.00  0.00    -0.360 OA
ATOM     22  H21 <0> d   1       4.771  -0.163  -7.550  0.00  0.00     0.217 HD
ENDBRANCH   8  21
BRANCH   1  23
ATOM     23  C3  <0> d   1       0.776  -1.799  -1.335  0.00  0.00     0.318 C 
ATOM     24  O2  <0> d   1       0.312  -2.550  -0.500  0.00  0.00    -0.257 OA
BRANCH  23  25
ATOM     25  O1  <0> d   1       0.671  -0.465  -1.174  0.00  0.00    -0.316 OA
BRANCH  25  26
ATOM     26  C2  <0> d   1       0.002  -0.004   0.002  0.00  0.00     0.175 C 
ATOM     27  C1  <0> d   1      -0.019   1.526   0.010  0.00  0.00     0.034 C 
ENDBRANCH  25  26
ENDBRANCH  23  25
ENDBRANCH   1  23
BRANCH   2  28
ATOM     28  C19 <0> d   1       0.959  -4.628  -1.662  0.00  0.00     0.014 A 
ATOM     29  C24 <0> d   1       1.789  -5.305  -0.760  0.00  0.00     0.079 A 
ATOM     30  C23 <0> d   1       1.232  -6.152   0.184  0.00  0.00     0.037 A 
ATOM     31  C22 <0> d   1      -0.137  -6.338   0.226  0.00  0.00     0.003 A 
ATOM     32  C21 <0> d   1      -0.961  -5.675  -0.668  0.00  0.00     0.001 A 
ATOM     33  C20 <0> d   1      -0.422  -4.823  -1.609  0.00  0.00     0.015 A 
BRANCH  29  34
ATOM     34  O6  <0> d   1       3.135  -5.127  -0.806  0.00  0.00    -0.355 OA
ATOM     35  C25 <0> d   1       3.918  -5.850   0.145  0.00  0.00     0.210 C 
ENDBRANCH  29  34
ENDBRANCH   2  28
TORSDOF 8
