REMARK  4 active torsions:
REMARK  status: ('A' for Active; 'I' for Inactive)
REMARK    1  A    between atoms: N1_5  and  C7_8 
REMARK    2  A    between atoms: C7_8  and  C8_9 
REMARK    3  A    between atoms: C9_10  and  O3_30 
REMARK    4  A    between atoms: C15_17  and  C16_18 
ROOT
ATOM      1  C8  <0> d   1       2.314  10.228   0.034  0.00  0.00     0.036 A 
ATOM      2  C9  <0> d   1       2.148  11.604   0.042  0.00  0.00     0.076 A 
ATOM      3  C10 <0> d   1       0.874  12.163   0.056  0.00  0.00     0.038 A 
ATOM      4  C11 <0> d   1      -0.231  11.359   0.062  0.00  0.00     0.021 A 
ATOM      5  C12 <0> d   1      -0.080   9.972   0.054  0.00  0.00     0.051 A 
ATOM      6  C13 <0> d   1       1.202   9.397   0.040  0.00  0.00     0.101 A 
ATOM      7  O1  <0> d   1       1.075   8.053   0.035  0.00  0.00    -0.305 OA
ATOM      8  C14 <0> d   1      -0.226   7.678   0.045  0.00  0.00     0.128 A 
ATOM      9  C15 <0> d   1      -0.685   6.396   0.042  0.00  0.00     0.055 C 
ATOM     10  C25 <0> d   1      -1.032   8.848   0.052  0.00  0.00     0.218 A 
ATOM     11  O2  <0> d   1      -2.250   8.908   0.058  0.00  0.00    -0.284 OA
ENDROOT
BRANCH   9  12
ATOM     12  C16 <0> d   1       0.260   5.281   0.028  0.00  0.00    -0.005 A 
ATOM     13  C19 <0> d   1      -0.067   3.842   0.023  0.00  0.00     0.002 A 
ATOM     14  C18 <0> d   1       1.163   3.166   0.008  0.00  0.00     0.045 A 
ATOM     15  C20 <0> d   1      -1.260   3.124   0.031  0.00  0.00     0.014 A 
ATOM     16  N2  <0> d   1       2.164   4.115   0.004  0.00  0.00    -0.360 N 
ATOM     17  C23 <0> d   1       1.175   1.774   0.000  0.00  0.00     0.030 A 
ATOM     18  C17 <0> d   1       1.636   5.364   0.015  0.00  0.00     0.103 A 
ATOM     19  C24 <0> d   1       3.598   3.816  -0.012  0.00  0.00     0.156 C 
ATOM     20  C22 <0> d   1      -0.013   1.076   0.008  0.00  0.00     0.002 A 
ATOM     21  C21 <0> d   1      -1.227   1.746   0.017  0.00  0.00     0.001 A 
ENDBRANCH   9  12
BRANCH   1  22
ATOM     22  C7  <0> d   1       3.699   9.635   0.019  0.00  0.00     0.279 C 
BRANCH  22  23
ATOM     23  N1  <0> d   1       4.136   9.448  -1.371  0.00  0.00    -0.067 N 
ATOM     24  C4  <0> d   1       5.561   9.097  -1.431  0.00  0.00     0.235 C 
ATOM     25  C3  <0> d   1       5.946   8.769  -2.876  0.00  0.00     0.032 C 
ATOM     26  C2  <0> d   1       5.663   9.984  -3.763  0.00  0.00    -0.015 C 
ATOM     27  C1  <0> d   1       5.990   9.642  -5.218  0.00  0.00     0.010 C 
ATOM     28  C6  <0> d   1       4.183  10.359  -3.645  0.00  0.00     0.032 C 
ATOM     29  C5  <0> d   1       3.849  10.641  -2.178  0.00  0.00     0.235 C 
ATOM     30  H26 <0> d   1       3.566   8.610  -1.797  0.00  0.00     0.280 HD
ENDBRANCH  22  23
ENDBRANCH   1  22
BRANCH   2  31
ATOM     31  O3  <0> d   1       3.238  12.413   0.036  0.00  0.00    -0.360 OA
ATOM     32  H27 <0> d   1       3.112  13.506   0.042  0.00  0.00     0.217 HD
ENDBRANCH   2  31
TORSDOF 4
