REMARK  4 active torsions:
REMARK  status: ('A' for Active; 'I' for Inactive)
REMARK    1  A    between atoms: N2_5  and  C6_8 
REMARK    2  A    between atoms: C6_8  and  C7_9 
REMARK    3  A    between atoms: C8_10  and  O3_27 
REMARK    4  A    between atoms: C14_17  and  C15_18 
ROOT
ATOM      1  C7  <0> d   1       0.013  -3.739   2.749  0.00  0.00     0.038 A 
ATOM      2  C8  <0> d   1       1.368  -3.785   3.034  0.00  0.00     0.076 A 
ATOM      3  C9  <0> d   1       1.821  -4.317   4.238  0.00  0.00     0.038 A 
ATOM      4  C10 <0> d   1       0.929  -4.799   5.154  0.00  0.00     0.021 A 
ATOM      5  C11 <0> d   1      -0.438  -4.758   4.881  0.00  0.00     0.051 A 
ATOM      6  C12 <0> d   1      -0.907  -4.220   3.672  0.00  0.00     0.101 A 
ATOM      7  O1  <0> d   1      -2.256  -4.283   3.638  0.00  0.00    -0.305 OA
ATOM      8  C13 <0> d   1      -2.764  -4.834   4.766  0.00  0.00     0.128 A 
ATOM      9  C14 <0> d   1      -4.077  -5.037   5.038  0.00  0.00     0.054 C 
ATOM     10  C21 <0> d   1      -1.630  -5.185   5.637  0.00  0.00     0.218 A 
ATOM     11  O2  <0> d   1      -1.669  -5.701   6.740  0.00  0.00    -0.284 OA
ENDROOT
BRANCH   1  12
ATOM     12  C6  <0> d   1      -0.463  -3.161   1.442  0.00  0.00     0.317 C 
BRANCH  12  13
ATOM     13  N2  <0> d   1      -0.691  -1.718   1.598  0.00  0.00     0.096 N 
ATOM     14  C3  <0> d   1      -1.377  -1.163   0.423  0.00  0.00     0.303 C 
ATOM     15  C2  <0> d   1      -1.666   0.321   0.658  0.00  0.00     0.302 C 
ATOM     16  N1  <0> d   1      -0.404   1.029   0.911  0.00  0.00     0.087 N 
ATOM     17  C1  <0> d   1      -0.631   2.472   1.067  0.00  0.00     0.310 C 
ATOM     18  C5  <0> d   1       0.282   0.474   2.086  0.00  0.00     0.302 C 
ATOM     19  C4  <0> d   1       0.572  -1.010   1.851  0.00  0.00     0.303 C 
ENDBRANCH  12  13
ENDBRANCH   1  12
BRANCH   2  20
ATOM     20  O3  <0> d   1       2.262  -3.309   2.130  0.00  0.00    -0.360 OA
ATOM     21  H21 <0> d   1       2.470  -2.371   2.240  0.00  0.00     0.217 HD
ENDBRANCH   2  20
BRANCH   9  22
ATOM     22  C15 <0> d   1      -5.106  -4.502   4.136  0.00  0.00    -0.016 A 
ATOM     23  C20 <0> d   1      -6.433  -4.395   4.567  0.00  0.00     0.021 A 
ATOM     24  C19 <0> d   1      -7.392  -3.887   3.714  0.00  0.00     0.020 A 
ATOM     25 Br1  <0> d   1      -6.910  -4.938   6.315  0.00  0.00    -0.050 Br
ATOM     26  C18 <0> d   1      -7.046  -3.495   2.433  0.00  0.00     0.001 A 
ATOM     27  C17 <0> d   1      -5.736  -3.603   1.998  0.00  0.00     0.001 A 
ATOM     28  C16 <0> d   1      -4.765  -4.103   2.838  0.00  0.00     0.013 A 
ENDBRANCH   9  22
TORSDOF 4
