REMARK  5 active torsions:
REMARK  status: ('A' for Active; 'I' for Inactive)
REMARK    1  A    between atoms: N2_5  and  C6_8 
REMARK    2  A    between atoms: C6_8  and  C7_9 
REMARK    3  A    between atoms: C8_10  and  O4_28 
REMARK    4  A    between atoms: C14_18  and  C16_20 
REMARK    5  A    between atoms: C19_23  and  O3_26 
ROOT
ATOM      1  C7  <0> d   1       2.396   1.421  -0.014  0.00  0.00     0.038 A 
ATOM      2  C8  <0> d   1       2.394   0.036  -0.021  0.00  0.00     0.076 A 
ATOM      3  C9  <0> d   1       1.193  -0.669  -0.013  0.00  0.00     0.038 A 
ATOM      4  C10 <0> d   1       0.002  -0.004   0.002  0.00  0.00     0.017 A 
ATOM      5  C11 <0> d   1      -0.017   1.399   0.010  0.00  0.00    -0.000 A 
ATOM      6  C12 <0> d   1       1.194   2.115   0.002  0.00  0.00     0.100 A 
ATOM      7  O1  <0> d   1       1.195   3.466   0.009  0.00  0.00    -0.273 OA
ATOM      8  C13 <0> d   1       0.047   4.163   0.024  0.00  0.00     0.299 A 
ATOM      9  O2  <0> d   1       0.076   5.380   0.030  0.00  0.00    -0.259 OA
ATOM     10  C14 <0> d   1      -1.240   3.464   0.032  0.00  0.00     0.051 A 
ATOM     11  C15 <0> d   1      -1.253   2.095   0.031  0.00  0.00     0.032 A 
ENDROOT
BRANCH   1  12
ATOM     12  C6  <0> d   1       3.701   2.174  -0.023  0.00  0.00     0.317 C 
BRANCH  12  13
ATOM     13  N2  <0> d   1       4.111   2.426  -1.411  0.00  0.00     0.096 N 
ATOM     14  C3  <0> d   1       5.247   3.357  -1.464  0.00  0.00     0.303 C 
ATOM     15  C2  <0> d   1       5.591   3.655  -2.925  0.00  0.00     0.302 C 
ATOM     16  N1  <0> d   1       5.912   2.398  -3.616  0.00  0.00     0.087 N 
ATOM     17  C1  <0> d   1       6.322   2.651  -5.004  0.00  0.00     0.310 C 
ATOM     18  C5  <0> d   1       4.776   1.468  -3.563  0.00  0.00     0.302 C 
ATOM     19  C4  <0> d   1       4.431   1.170  -2.102  0.00  0.00     0.303 C 
ENDBRANCH  12  13
ENDBRANCH   1  12
BRANCH   2  20
ATOM     20  O4  <0> d   1       3.572  -0.639  -0.036  0.00  0.00    -0.360 OA
ATOM     21  H24 <0> d   1       3.575  -1.739  -0.042  0.00  0.00     0.217 HD
ENDBRANCH   2  20
BRANCH  10  22
ATOM     22  C16 <0> d   1      -2.510   4.227   0.049  0.00  0.00    -0.020 A 
ATOM     23  C21 <0> d   1      -2.701   5.247   0.981  0.00  0.00     0.015 A 
ATOM     24  C20 <0> d   1      -3.884   5.955   0.993  0.00  0.00     0.037 A 
ATOM     25  C19 <0> d   1      -4.885   5.653   0.079  0.00  0.00     0.068 A 
ATOM     26  C18 <0> d   1      -4.699   4.639  -0.850  0.00  0.00     0.037 A 
ATOM     27  C17 <0> d   1      -3.515   3.930  -0.872  0.00  0.00     0.015 A 
BRANCH  25  28
ATOM     28  O3  <0> d   1      -6.050   6.353   0.095  0.00  0.00    -0.356 OA
ATOM     29  C22 <0> d   1      -7.037   5.990  -0.873  0.00  0.00     0.210 C 
ENDBRANCH  25  28
ENDBRANCH  10  22
TORSDOF 5
