REMARK  8 active torsions:
REMARK  status: ('A' for Active; 'I' for Inactive)
REMARK    1  A    between atoms: C2_2  and  C4_4 
REMARK    2  A    between atoms: C7_7  and  C10_10 
REMARK    3  A    between atoms: C16_17  and  O4_31 
REMARK    4  A    between atoms: C17_18  and  C19_21 
REMARK    5  A    between atoms: C19_21  and  N1_22 
REMARK    6  A    between atoms: N2_25  and  C24_28 
REMARK    7  A    between atoms: C24_28  and  C25_29 
REMARK    8  A    between atoms: C25_29  and  O3_30 
ROOT
ATOM      1  C10 <0> d   1       1.570  -2.014  -1.054  0.00  0.00     0.053 C 
ATOM      2  C11 <0> d   1       1.126  -0.733  -1.024  0.00  0.00     0.127 A 
ATOM      3  C12 <0> d   1      -0.271  -0.292  -1.169  0.00  0.00     0.218 A 
ATOM      4  O1  <0> d   1      -1.258  -0.987  -1.339  0.00  0.00    -0.284 OA
ATOM      5  C13 <0> d   1      -0.208   1.176  -1.063  0.00  0.00     0.051 A 
ATOM      6  C14 <0> d   1      -1.177   2.179  -1.111  0.00  0.00     0.021 A 
ATOM      7  C15 <0> d   1      -0.809   3.489  -0.983  0.00  0.00     0.038 A 
ATOM      8  C16 <0> d   1       0.529   3.823  -0.792  0.00  0.00     0.076 A 
ATOM      9  C17 <0> d   1       1.501   2.838  -0.737  0.00  0.00     0.038 A 
ATOM     10  C18 <0> d   1       1.144   1.502  -0.871  0.00  0.00     0.101 A 
ATOM     11  O2  <0> d   1       1.887   0.373  -0.854  0.00  0.00    -0.305 OA
ENDROOT
BRANCH   9  12
ATOM     12  C19 <0> d   1       2.945   3.215  -0.530  0.00  0.00     0.317 C 
BRANCH  12  13
ATOM     13  N1  <0> d   1       3.586   3.430  -1.835  0.00  0.00     0.096 N 
ATOM     14  C23 <0> d   1       4.920   4.026  -1.674  0.00  0.00     0.300 C 
ATOM     15  C22 <0> d   1       5.520   4.307  -3.054  0.00  0.00     0.265 C 
ATOM     16  N2  <0> d   1       5.595   3.053  -3.817  0.00  0.00    -0.066 N 
ATOM     17  C21 <0> d   1       4.261   2.457  -3.978  0.00  0.00     0.265 C 
ATOM     18  H31 <0> d   1       6.217   2.346  -3.248  0.00  0.00     0.280 HD
ATOM     19  C20 <0> d   1       3.661   2.176  -2.598  0.00  0.00     0.300 C 
BRANCH  16  20
ATOM     20  C24 <0> d   1       6.236   3.268  -5.121  0.00  0.00     0.260 C 
BRANCH  20  21
ATOM     21  C25 <0> d   1       5.295   4.067  -6.026  0.00  0.00     0.192 C 
BRANCH  21  22
ATOM     22  O3  <0> d   1       5.136   5.386  -5.501  0.00  0.00    -0.399 OA
ATOM     23  H29 <0> d   1       4.491   6.111  -6.020  0.00  0.00     0.209 HD
ENDBRANCH  21  22
ENDBRANCH  20  21
ENDBRANCH  16  20
ENDBRANCH  12  13
ENDBRANCH   9  12
BRANCH   8  24
ATOM     24  O4  <0> d   1       0.884   5.127  -0.660  0.00  0.00    -0.360 OA
ATOM     25  H30 <0> d   1       1.940   5.397  -0.510  0.00  0.00     0.217 HD
ENDBRANCH   8  24
BRANCH   1  26
ATOM     26  C7  <0> d   1       3.012  -2.294  -1.004  0.00  0.00    -0.033 A 
ATOM     27  C6  <0> d   1       3.922  -1.255  -0.777  0.00  0.00     0.012 A 
ATOM     28  C5  <0> d   1       5.273  -1.526  -0.732  0.00  0.00     0.008 A 
ATOM     29  C4  <0> d   1       5.730  -2.821  -0.909  0.00  0.00    -0.055 A 
ATOM     30  C9  <0> d   1       4.836  -3.853  -1.135  0.00  0.00     0.008 A 
ATOM     31  C8  <0> d   1       3.482  -3.600  -1.177  0.00  0.00     0.012 A 
BRANCH  29  32
ATOM     32  C2  <0> d   1       7.209  -3.107  -0.858  0.00  0.00     0.010 C 
ATOM     33  C1  <0> d   1       7.496  -4.101   0.270  0.00  0.00     0.015 C 
ATOM     34  C3  <0> d   1       7.659  -3.705  -2.192  0.00  0.00     0.015 C 
ENDBRANCH  29  32
ENDBRANCH   1  26
TORSDOF 8
