REMARK  4 active torsions:
REMARK  status: ('A' for Active; 'I' for Inactive)
REMARK    1  A    between atoms: C5_5  and  C18_21 
REMARK    2  A    between atoms: C10_11  and  C11_12 
REMARK    3  A    between atoms: C14_15  and  O2_18 
REMARK    4  A    between atoms: C18_21  and  N1_22 
ROOT
ATOM      1  C1  <0> d   1       3.824   2.636   2.513  0.00  0.00     0.049 C 
ATOM      2  C2  <0> d   1       3.137   2.323   1.209  0.00  0.00    -0.042 A 
ATOM      3  C3  <0> d   1       1.904   1.733   1.209  0.00  0.00     0.048 A 
ATOM      4  C4  <0> d   1       1.270   1.439   0.005  0.00  0.00     0.118 A 
ATOM      5  C5  <0> d   1       1.872   1.748  -1.203  0.00  0.00     0.041 A 
ATOM      6  C6  <0> d   1       3.123   2.353  -1.221  0.00  0.00     0.102 A 
ATOM      7  C7  <0> d   1       3.756   2.640  -0.000  0.00  0.00     0.057 A 
ATOM      8  C8  <0> d   1       5.046   3.268  -0.339  0.00  0.00     0.219 A 
ATOM      9  O1  <0> d   1       5.903   3.671   0.428  0.00  0.00    -0.284 OA
ATOM     10  C9  <0> d   1       5.066   3.300  -1.808  0.00  0.00     0.128 A 
ATOM     11  C10 <0> d   1       6.063   3.794  -2.586  0.00  0.00     0.053 C 
ATOM     12  O3  <0> d   1       3.910   2.748  -2.245  0.00  0.00    -0.305 OA
ATOM     13  O5  <0> d   1       0.047   0.849   0.016  0.00  0.00    -0.191 OA
ENDROOT
BRANCH  11  14
ATOM     14  C11 <0> d   1       5.994   3.654  -4.045  0.00  0.00    -0.033 A 
ATOM     15  C16 <0> d   1       4.844   3.127  -4.647  0.00  0.00     0.014 A 
ATOM     16  C15 <0> d   1       4.784   2.998  -6.016  0.00  0.00     0.037 A 
ATOM     17  C14 <0> d   1       5.863   3.388  -6.801  0.00  0.00     0.068 A 
ATOM     18  C13 <0> d   1       7.007   3.912  -6.210  0.00  0.00     0.037 A 
ATOM     19  C12 <0> d   1       7.075   4.051  -4.842  0.00  0.00     0.014 A 
BRANCH  17  20
ATOM     20  O2  <0> d   1       5.799   3.258  -8.151  0.00  0.00    -0.356 OA
ATOM     21  C17 <0> d   1       6.942   3.679  -8.898  0.00  0.00     0.210 C 
ENDBRANCH  17  20
ENDBRANCH  11  14
BRANCH   5  22
ATOM     22  C18 <0> d   1       1.171   1.429  -2.498  0.00  0.00     0.317 C 
BRANCH  22  23
ATOM     23  N1  <0> d   1       0.341   2.573  -2.900  0.00  0.00     0.097 N 
ATOM     24  C22 <0> d   1      -0.170   2.399  -4.268  0.00  0.00     0.299 C 
ATOM     25  C21 <0> d   1      -0.977   3.636  -4.667  0.00  0.00     0.198 C 
ATOM     26  O4  <0> d   1      -2.028   3.840  -3.718  0.00  0.00    -0.388 OA
ATOM     27  C20 <0> d   1      -1.566   4.015  -2.376  0.00  0.00     0.198 C 
ATOM     28  C19 <0> d   1      -0.764   2.780  -1.954  0.00  0.00     0.299 C 
ENDBRANCH  22  23
ENDBRANCH   5  22
TORSDOF 4
