REMARK  4 active torsions:
REMARK  status: ('A' for Active; 'I' for Inactive)
REMARK    1  A    between atoms: C3_3  and  C16_21 
REMARK    2  A    between atoms: C9_10  and  C11_13 
REMARK    3  A    between atoms: C11_13  and  N1_14 
REMARK    4  A    between atoms: C19_24  and  O5_27 
ROOT
ATOM      1  C1  <0> d   1       1.222  -2.147  -0.021  0.00  0.00     0.077 C 
ATOM      2  C2  <0> d   1       1.202  -0.640  -0.013  0.00  0.00     0.065 A 
ATOM      3  C3  <0> d   1       0.002  -0.004   0.002  0.00  0.00     0.054 A 
ATOM      4  C4  <0> d   1      -0.018   1.469   0.010  0.00  0.00     0.198 A 
ATOM      5  O1  <0> d   1      -1.065   2.094   0.018  0.00  0.00    -0.286 OA
ATOM      6  C5  <0> d   1       1.289   2.150   0.001  0.00  0.00     0.050 A 
ATOM      7  C6  <0> d   1       1.379   3.543   0.009  0.00  0.00     0.021 A 
ATOM      8  C7  <0> d   1       2.606   4.143   0.001  0.00  0.00     0.041 A 
ATOM      9  C8  <0> d   1       3.766   3.371  -0.014  0.00  0.00     0.118 A 
ATOM     10  C9  <0> d   1       3.693   1.989  -0.021  0.00  0.00     0.039 A 
ATOM     11  C10 <0> d   1       2.453   1.362  -0.013  0.00  0.00     0.100 A 
ATOM     12  O2  <0> d   1       2.364   0.018  -0.020  0.00  0.00    -0.313 OA
ATOM     13  O4  <0> d   1       4.979   3.980  -0.021  0.00  0.00    -0.191 OA
ENDROOT
BRANCH   3  14
ATOM     14  C16 <0> d   1      -1.264  -0.777   0.009  0.00  0.00    -0.019 A 
ATOM     15  C21 <0> d   1      -2.135  -0.701  -1.075  0.00  0.00     0.015 A 
ATOM     16  C20 <0> d   1      -3.312  -1.421  -1.065  0.00  0.00     0.037 A 
ATOM     17  C19 <0> d   1      -3.627  -2.222   0.023  0.00  0.00     0.068 A 
ATOM     18  C18 <0> d   1      -2.761  -2.301   1.105  0.00  0.00     0.037 A 
ATOM     19  C17 <0> d   1      -1.581  -1.587   1.099  0.00  0.00     0.015 A 
BRANCH  17  20
ATOM     20  O5  <0> d   1      -4.787  -2.931   0.030  0.00  0.00    -0.356 OA
ATOM     21  C22 <0> d   1      -5.049  -3.735   1.182  0.00  0.00     0.210 C 
ENDBRANCH  17  20
ENDBRANCH   3  14
BRANCH  10  22
ATOM     22  C11 <0> d   1       4.955   1.165  -0.036  0.00  0.00     0.281 C 
BRANCH  22  23
ATOM     23  N1  <0> d   1       5.353   0.905  -1.426  0.00  0.00    -0.046 N 
ATOM     24  C15 <0> d   1       5.739   2.150  -2.105  0.00  0.00     0.402 C 
ATOM     25  O3  <0> d   1       6.193   1.852  -3.427  0.00  0.00    -0.364 OA
ATOM     26  C14 <0> d   1       5.208   1.219  -4.249  0.00  0.00     0.171 C 
ATOM     27  C13 <0> d   1       4.765  -0.087  -3.583  0.00  0.00     0.054 C 
ATOM     28  C12 <0> d   1       4.281   0.218  -2.161  0.00  0.00     0.240 C 
ATOM     29  H23 <0> d   1       6.231   0.243  -1.407  0.00  0.00     0.282 HD
ENDBRANCH  22  23
ENDBRANCH  10  22
TORSDOF 4
