REMARK  10 active torsions:
REMARK  status: ('A' for Active; 'I' for Inactive)
REMARK    1  A    between atoms: C2_2  and  C3_3 
REMARK    2  A    between atoms: C3_3  and  C4_4 
REMARK    3  A    between atoms: C4_4  and  N1_5 
REMARK    4  A    between atoms: N1_5  and  C5_6 
REMARK    5  A    between atoms: N1_5  and  C9_10 
REMARK    6  A    between atoms: C5_6  and  C6_7 
REMARK    7  A    between atoms: C6_7  and  C7_8 
REMARK    8  A    between atoms: C9_10  and  C10_11 
REMARK    9  A    between atoms: C11_12  and  O4_32 
REMARK   10  A    between atoms: C17_19  and  C18_20 
ROOT
ATOM      1  C10 <0> d   1       1.683   3.196  -0.002  0.00  0.00     0.036 A 
ATOM      2  C11 <0> d   1       3.039   3.475  -0.048  0.00  0.00     0.076 A 
ATOM      3  C12 <0> d   1       3.974   2.443  -0.067  0.00  0.00     0.045 A 
ATOM      4  C13 <0> d   1       3.561   1.141  -0.041  0.00  0.00    -0.042 A 
ATOM      5  C14 <0> d   1       2.198   0.846   0.006  0.00  0.00     0.057 A 
ATOM      6  C15 <0> d   1       1.246   1.877   0.025  0.00  0.00     0.101 A 
ATOM      7  O1  <0> d   1       0.004   1.349   0.070  0.00  0.00    -0.305 OA
ATOM      8  C16 <0> d   1       0.033  -0.004   0.083  0.00  0.00     0.129 A 
ATOM      9  C17 <0> d   1      -1.048  -0.832   0.125  0.00  0.00     0.078 C 
ATOM     10  C26 <0> d   1       1.441  -0.419   0.043  0.00  0.00     0.219 A 
ATOM     11  O3  <0> d   1       1.885  -1.554   0.040  0.00  0.00    -0.284 OA
ATOM     12  C27 <0> d   1       4.574   0.027  -0.063  0.00  0.00     0.049 C 
ENDROOT
BRANCH   1  13
ATOM     13  C9  <0> d   1       0.682   4.322   0.019  0.00  0.00     0.279 C 
BRANCH  13  14
ATOM     14  N1  <0> d   1       0.286   4.600   1.406  0.00  0.00    -0.067 N 
ATOM     15  H31 <0> d   1      -0.527   5.340   1.383  0.00  0.00     0.280 HD
BRANCH  14  16
ATOM     16  C4  <0> d   1      -0.224   3.388   2.061  0.00  0.00     0.235 C 
BRANCH  16  17
ATOM     17  C3  <0> d   1      -0.853   3.760   3.404  0.00  0.00     0.027 C 
BRANCH  17  18
ATOM     18  C2  <0> d   1      -1.384   2.497   4.086  0.00  0.00    -0.003 C 
ATOM     19  C1  <0> d   1      -2.014   2.870   5.430  0.00  0.00     0.005 C 
ENDBRANCH  17  18
ENDBRANCH  16  17
ENDBRANCH  14  16
BRANCH  14  20
ATOM     20  C5  <0> d   1       1.402   5.179   2.166  0.00  0.00     0.235 C 
BRANCH  20  21
ATOM     21  C6  <0> d   1       1.599   6.638   1.751  0.00  0.00     0.027 C 
BRANCH  21  22
ATOM     22  C7  <0> d   1       2.675   7.278   2.630  0.00  0.00    -0.003 C 
ATOM     23  C8  <0> d   1       2.872   8.737   2.215  0.00  0.00     0.005 C 
ENDBRANCH  21  22
ENDBRANCH  20  21
ENDBRANCH  14  20
ENDBRANCH  13  14
ENDBRANCH   1  13
BRANCH   2  24
ATOM     24  O4  <0> d   1       3.460   4.765  -0.074  0.00  0.00    -0.360 OA
ATOM     25  H32 <0> d   1       4.536   4.992  -0.111  0.00  0.00     0.217 HD
ENDBRANCH   2  24
BRANCH   9  26
ATOM     26  C18 <0> d   1      -2.355  -0.289   0.161  0.00  0.00     0.079 A 
ATOM     27  O2  <0> d   1      -2.653   1.029   0.157  0.00  0.00    -0.310 OA
ATOM     28  C25 <0> d   1      -3.991   1.196   0.198  0.00  0.00     0.086 A 
ATOM     29  C20 <0> d   1      -4.578  -0.083   0.230  0.00  0.00     0.000 A 
ATOM     30  C24 <0> d   1      -4.807   2.320   0.213  0.00  0.00     0.038 A 
ATOM     31  C19 <0> d   1      -3.509  -1.014   0.200  0.00  0.00     0.051 A 
ATOM     32  C21 <0> d   1      -5.971  -0.209   0.277  0.00  0.00     0.014 A 
ATOM     33  C22 <0> d   1      -6.753   0.910   0.290  0.00  0.00     0.001 A 
ATOM     34  C23 <0> d   1      -6.177   2.173   0.259  0.00  0.00     0.003 A 
ENDBRANCH   9  26
TORSDOF 10
