REMARK  3 active torsions:
REMARK  status: ('A' for Active; 'I' for Inactive)
REMARK    1  A    between atoms: C3_3  and  C11_16 
REMARK    2  A    between atoms: C4_4  and  C5_8 
REMARK    3  A    between atoms: C8_11  and  O2_15 
ROOT
ATOM      1  C1  <0> d   1      -0.055   1.496   0.123  0.00  0.00     0.071 C 
ATOM      2  C2  <0> d   1      -0.015  -0.009   0.051  0.00  0.00     0.039 A 
ATOM      3  C3  <0> d   1       0.001  -0.863   1.118  0.00  0.00     0.055 A 
ATOM      4  C4  <0> d   1       0.041  -2.220   0.568  0.00  0.00     0.105 A 
ATOM      5  N1  <0> d   1       0.047  -2.103  -0.742  0.00  0.00    -0.173 NA
ATOM      6  H1  <0> d   1      -0.002  -0.390  -1.976  0.00  0.00     0.189 HD
ATOM      7  N2  <0> d   1       0.007  -0.745  -1.074  0.00  0.00    -0.281 N 
ENDROOT
BRANCH   3   8
ATOM      8  C11 <0> d   1      -0.017  -0.490   2.547  0.00  0.00     0.113 A 
ATOM      9  S1  <0> d   1       0.062   1.137   3.283  0.00  0.00    -0.067 SA
ATOM     10  C17 <0> d   1      -0.021   0.618   4.980  0.00  0.00     0.035 A 
ATOM     11  C12 <0> d   1      -0.098  -0.789   4.862  0.00  0.00     0.075 A 
ATOM     12  C16 <0> d   1      -0.019   1.259   6.194  0.00  0.00     0.021 A 
ATOM     13  N3  <0> d   1      -0.091  -1.272   3.603  0.00  0.00    -0.239 NA
ATOM     14  C13 <0> d   1      -0.173  -1.514   6.075  0.00  0.00     0.033 A 
ATOM     15  C14 <0> d   1      -0.171  -0.870   7.273  0.00  0.00     0.002 A 
ATOM     16  C15 <0> d   1      -0.095   0.513   7.356  0.00  0.00     0.002 A 
ENDBRANCH   3   8
BRANCH   4  17
ATOM     17  C5  <0> d   1       0.070  -3.484   1.341  0.00  0.00     0.032 A 
ATOM     18  C10 <0> d   1       1.012  -4.472   1.034  0.00  0.00     0.122 A 
ATOM     19  C9  <0> d   1       1.038  -5.648   1.764  0.00  0.00     0.077 A 
ATOM     20  O1  <0> d   1       1.902  -4.276   0.027  0.00  0.00    -0.191 OA
ATOM     21  C8  <0> d   1       0.124  -5.850   2.788  0.00  0.00     0.068 A 
ATOM     22  C7  <0> d   1      -0.815  -4.872   3.089  0.00  0.00     0.037 A 
ATOM     23  C6  <0> d   1      -0.844  -3.694   2.372  0.00  0.00     0.019 A 
BRANCH  21  24
ATOM     24  O2  <0> d   1       0.148  -7.008   3.499  0.00  0.00    -0.361 OA
ATOM     25  H8  <0> d   1      -0.409  -7.707   3.130  0.00  0.00     0.217 HD
ENDBRANCH  21  24
ENDBRANCH   4  17
TORSDOF 3
