REMARK  5 active torsions:
REMARK  status: ('A' for Active; 'I' for Inactive)
REMARK    1  A    between atoms: C2_2  and  N1_3 
REMARK    2  A    between atoms: N2_6  and  C7_9 
REMARK    3  A    between atoms: C7_9  and  C8_10 
REMARK    4  A    between atoms: C15_18  and  C16_19 
REMARK    5  A    between atoms: C20_23  and  N3_25 
ROOT
ATOM      1  C8  <0> d   1       2.072   6.747  -0.263  0.00  0.00     0.041 A 
ATOM      2  C9  <0> d   1       2.662   7.995  -0.382  0.00  0.00     0.118 A 
ATOM      3  C10 <0> d   1       4.046   8.120  -0.464  0.00  0.00     0.041 A 
ATOM      4  C11 <0> d   1       4.839   7.008  -0.427  0.00  0.00     0.021 A 
ATOM      5  C12 <0> d   1       4.259   5.744  -0.308  0.00  0.00     0.051 A 
ATOM      6  C13 <0> d   1       2.864   5.606  -0.224  0.00  0.00     0.101 A 
ATOM      7  O1  <0> d   1       2.541   4.299  -0.114  0.00  0.00    -0.305 OA
ATOM      8  C14 <0> d   1       3.639   3.507  -0.117  0.00  0.00     0.127 A 
ATOM      9  C15 <0> d   1       3.652   2.154  -0.022  0.00  0.00     0.053 C 
ATOM     10  C22 <0> d   1       4.817   4.382  -0.234  0.00  0.00     0.218 A 
ATOM     11  O4  <0> d   1       5.990   4.053  -0.267  0.00  0.00    -0.284 OA
ATOM     12  O5  <0> d   1       1.883   9.106  -0.418  0.00  0.00    -0.191 OA
ENDROOT
BRANCH   1  13
ATOM     13  C7  <0> d   1       0.573   6.627  -0.175  0.00  0.00     0.317 C 
BRANCH  13  14
ATOM     14  N2  <0> d   1       0.159   6.685   1.233  0.00  0.00     0.096 N 
ATOM     15  C4  <0> d   1      -1.301   6.810   1.348  0.00  0.00     0.300 C 
ATOM     16  C3  <0> d   1      -1.684   6.948   2.824  0.00  0.00     0.265 C 
ATOM     17  N1  <0> d   1      -1.199   5.775   3.565  0.00  0.00    -0.068 N 
ATOM     18  C6  <0> d   1       0.261   5.650   3.450  0.00  0.00     0.265 C 
ATOM     19  H23 <0> d   1      -1.653   4.879   3.117  0.00  0.00     0.280 HD
ATOM     20  C5  <0> d   1       0.644   5.513   1.974  0.00  0.00     0.300 C 
BRANCH  17  21
ATOM     21  C2  <0> d   1      -1.613   5.834   4.973  0.00  0.00     0.230 C 
ATOM     22  C1  <0> d   1      -0.890   4.741   5.763  0.00  0.00     0.034 C 
ENDBRANCH  17  21
ENDBRANCH  13  14
ENDBRANCH   1  13
BRANCH   9  23
ATOM     23  C16 <0> d   1       2.387   1.406  -0.021  0.00  0.00    -0.031 A 
ATOM     24  C21 <0> d   1       2.397   0.007  -0.051  0.00  0.00     0.047 A 
ATOM     25  C20 <0> d   1       1.206  -0.688  -0.049  0.00  0.00     0.103 A 
ATOM     26  C19 <0> d   1       0.003  -0.005  -0.018  0.00  0.00     0.036 A 
ATOM     27  C18 <0> d   1      -0.016   1.379   0.012  0.00  0.00     0.003 A 
ATOM     28  C17 <0> d   1       1.165   2.088   0.011  0.00  0.00     0.011 A 
BRANCH  25  29
ATOM     29  N3  <0> d   1       1.215  -2.168  -0.081  0.00  0.00    -0.116 N 
ATOM     30  O2  <0> d   1       0.164  -2.783  -0.080  0.00  0.00    -0.532 OA
ATOM     31  O3  <0> d   1       2.273  -2.770  -0.109  0.00  0.00    -0.532 OA
ENDBRANCH  25  29
ENDBRANCH   9  23
TORSDOF 5
