REMARK  6 active torsions:
REMARK  status: ('A' for Active; 'I' for Inactive)
REMARK    1  A    between atoms: O1_2  and  C2_3 
REMARK    2  A    between atoms: C6_7  and  C9_11 
REMARK    3  A    between atoms: C7_8  and  O2_9 
REMARK    4  A    between atoms: C16_19  and  C18_22 
REMARK    5  A    between atoms: C18_22  and  N1_23 
REMARK    6  A    between atoms: N2_26  and  C23_29 
ROOT
ATOM      1  C9  <0> d   1       1.525  -3.870  -2.255  0.00  0.00     0.055 C 
ATOM      2  C10 <0> d   1       1.835  -4.565  -3.379  0.00  0.00     0.128 A 
ATOM      3  C11 <0> d   1       1.581  -5.993  -3.614  0.00  0.00     0.218 A 
ATOM      4  O3  <0> d   1       1.059  -6.793  -2.857  0.00  0.00    -0.284 OA
ATOM      5  C12 <0> d   1       2.100  -6.243  -4.971  0.00  0.00     0.051 A 
ATOM      6  C13 <0> d   1       2.162  -7.381  -5.776  0.00  0.00     0.021 A 
ATOM      7  C14 <0> d   1       2.714  -7.305  -7.023  0.00  0.00     0.041 A 
ATOM      8  C15 <0> d   1       3.215  -6.094  -7.493  0.00  0.00     0.118 A 
ATOM      9  C16 <0> d   1       3.161  -4.956  -6.705  0.00  0.00     0.039 A 
ATOM     10  C17 <0> d   1       2.602  -5.016  -5.435  0.00  0.00     0.101 A 
ATOM     11  O4  <0> d   1       2.427  -4.066  -4.490  0.00  0.00    -0.305 OA
ATOM     12  O5  <0> d   1       3.762  -6.028  -8.734  0.00  0.00    -0.191 OA
ENDROOT
BRANCH   9  13
ATOM     13  C18 <0> d   1       3.707  -3.652  -7.227  0.00  0.00     0.279 C 
BRANCH  13  14
ATOM     14  N1  <0> d   1       2.643  -2.920  -7.928  0.00  0.00    -0.064 N 
ATOM     15  C22 <0> d   1       3.144  -1.600  -8.331  0.00  0.00     0.255 C 
ATOM     16  C21 <0> d   1       2.003  -0.792  -8.959  0.00  0.00     0.150 C 
ATOM     17  N2  <0> d   1       1.421  -1.582 -10.055  0.00  0.00    -0.378 N 
ATOM     18  C20 <0> d   1       1.041  -2.976  -9.780  0.00  0.00     0.150 C 
ATOM     19  C19 <0> d   1       2.227  -3.680  -9.113  0.00  0.00     0.255 C 
ATOM     20  H27 <0> d   1       1.853  -2.805  -7.310  0.00  0.00     0.280 HD
BRANCH  17  21
ATOM     21  C23 <0> d   1       1.235  -1.024 -11.323  0.00  0.00     0.030 A 
ATOM     22  C28 <0> d   1       1.476   0.328 -11.530  0.00  0.00     0.032 A 
ATOM     23  C27 <0> d   1       1.296   0.877 -12.785  0.00  0.00     0.044 A 
ATOM     24  C26 <0> d   1       0.865   0.082 -13.834  0.00  0.00     0.116 A 
ATOM     25  C25 <0> d   1       0.618  -1.265 -13.629  0.00  0.00     0.044 A 
ATOM     26  F1  <0> d   1       0.685   0.622 -15.059  0.00  0.00    -0.206 F 
ATOM     27  C24 <0> d   1       0.802  -1.819 -12.377  0.00  0.00     0.032 A 
ENDBRANCH  17  21
ENDBRANCH  13  14
ENDBRANCH   9  13
BRANCH   1  28
ATOM     28  C6  <0> d   1       1.792  -2.428  -2.186  0.00  0.00     0.003 A 
ATOM     29  C5  <0> d   1       2.154  -1.723  -3.341  0.00  0.00     0.014 A 
ATOM     30  C4  <0> d   1       2.403  -0.370  -3.271  0.00  0.00     0.004 A 
ATOM     31  C3  <0> d   1       2.298   0.300  -2.063  0.00  0.00     0.040 A 
ATOM     32  C2  <0> d   1       1.942  -0.383  -0.911  0.00  0.00     0.102 A 
ATOM     33  C7  <0> d   1       1.693  -1.749  -0.962  0.00  0.00     0.111 A 
BRANCH  32  34
ATOM     34  O1  <0> d   1       1.842   0.284   0.270  0.00  0.00    -0.353 OA
ATOM     35  C1  <0> d   1       2.112   1.687   0.248  0.00  0.00     0.210 C 
ENDBRANCH  32  34
BRANCH  33  36
ATOM     36  O2  <0> d   1       1.349  -2.422   0.167  0.00  0.00    -0.352 OA
ATOM     37  C8  <0> d   1      -0.044  -2.511   0.470  0.00  0.00     0.210 C 
ENDBRANCH  33  36
ENDBRANCH   1  28
TORSDOF 6
