REMARK  4 active torsions:
REMARK  status: ('A' for Active; 'I' for Inactive)
REMARK    1  A    between atoms: O1_2  and  C2_3 
REMARK    2  A    between atoms: C5_6  and  C8_9 
REMARK    3  A    between atoms: C10_14  and  C11_15 
REMARK    4  A    between atoms: C14_18  and  O3_22 
ROOT
ATOM      1  C8  <0> d   1      -4.915  -2.730   0.117  0.00  0.00     0.022 A 
ATOM      2  C9  <0> d   1      -5.935  -2.503   0.992  0.00  0.00     0.124 A 
ATOM      3  N1  <0> d   1      -7.013  -3.188   0.557  0.00  0.00    -0.288 N 
ATOM      4  H1  <0> d   1      -7.883  -3.209   0.987  0.00  0.00     0.188 HD
ATOM      5  N2  <0> d   1      -6.664  -3.862  -0.619  0.00  0.00    -0.174 NA
ATOM      6  C10 <0> d   1      -5.408  -3.590  -0.897  0.00  0.00     0.102 A 
ENDROOT
BRANCH   6   7
ATOM      7  C11 <0> d   1      -4.642  -4.096  -2.061  0.00  0.00     0.032 A 
ATOM      8  C16 <0> d   1      -4.687  -5.454  -2.394  0.00  0.00     0.122 A 
ATOM      9  C15 <0> d   1      -3.974  -5.919  -3.486  0.00  0.00     0.077 A 
ATOM     10  O2  <0> d   1      -5.433  -6.313  -1.651  0.00  0.00    -0.191 OA
ATOM     11  C14 <0> d   1      -3.208  -5.042  -4.239  0.00  0.00     0.068 A 
ATOM     12  C13 <0> d   1      -3.158  -3.694  -3.906  0.00  0.00     0.037 A 
ATOM     13  C12 <0> d   1      -3.870  -3.221  -2.824  0.00  0.00     0.019 A 
BRANCH  11  14
ATOM     14  O3  <0> d   1      -2.505  -5.502  -5.307  0.00  0.00    -0.361 OA
ATOM     15  H13 <0> d   1      -1.607  -5.790  -5.093  0.00  0.00     0.217 HD
ENDBRANCH  11  14
ENDBRANCH   6   7
BRANCH   1  16
ATOM     16  C5  <0> d   1      -3.543  -2.174   0.205  0.00  0.00    -0.022 A 
ATOM     17  C4  <0> d   1      -3.351  -0.796   0.283  0.00  0.00     0.015 A 
ATOM     18  C3  <0> d   1      -2.074  -0.282   0.366  0.00  0.00     0.037 A 
ATOM     19  C2  <0> d   1      -0.980  -1.136   0.372  0.00  0.00     0.068 A 
ATOM     20  C7  <0> d   1      -1.167  -2.509   0.289  0.00  0.00     0.037 A 
ATOM     21  C6  <0> d   1      -2.442  -3.029   0.211  0.00  0.00     0.015 A 
BRANCH  19  22
ATOM     22  O1  <0> d   1       0.278  -0.627   0.454  0.00  0.00    -0.356 OA
ATOM     23  C1  <0> d   1       0.398   0.795   0.537  0.00  0.00     0.210 C 
ENDBRANCH  19  22
ENDBRANCH   1  16
TORSDOF 4
