REMARK  6 active torsions:
REMARK  status: ('A' for Active; 'I' for Inactive)
REMARK    1  A    between atoms: O1_2  and  C2_3 
REMARK    2  A    between atoms: C5_6  and  C9_11 
REMARK    3  A    between atoms: C7_8  and  O2_9 
REMARK    4  A    between atoms: N1_23  and  C20_26 
REMARK    5  A    between atoms: C20_26  and  C21_27 
REMARK    6  A    between atoms: C21_27  and  N2_28 
ROOT
ATOM      1  C9  <0> d   1       2.491  -2.485  -4.360  0.00  0.00     0.053 C 
ATOM      2  C10 <0> d   1       2.954  -1.734  -5.392  0.00  0.00     0.127 A 
ATOM      3  C11 <0> d   1       3.527  -2.242  -6.646  0.00  0.00     0.218 A 
ATOM      4  O3  <0> d   1       3.686  -3.404  -6.978  0.00  0.00    -0.284 OA
ATOM      5  C12 <0> d   1       3.867  -1.030  -7.414  0.00  0.00     0.051 A 
ATOM      6  C13 <0> d   1       4.436  -0.824  -8.672  0.00  0.00     0.021 A 
ATOM      7  C14 <0> d   1       4.633   0.447  -9.128  0.00  0.00     0.038 A 
ATOM      8  C15 <0> d   1       4.270   1.542  -8.344  0.00  0.00     0.082 A 
ATOM      9  C16 <0> d   1       3.703   1.351  -7.096  0.00  0.00     0.038 A 
ATOM     10  C17 <0> d   1       3.495   0.062  -6.615  0.00  0.00     0.101 A 
ATOM     11  O4  <0> d   1       2.967  -0.382  -5.454  0.00  0.00    -0.305 OA
ATOM     12  C18 <0> d   1       3.298   2.526  -6.242  0.00  0.00     0.319 C 
ATOM     13  N1  <0> d   1       3.961   3.743  -6.731  0.00  0.00     0.117 N 
ATOM     14  C19 <0> d   1       3.783   3.866  -8.188  0.00  0.00     0.447 C 
ATOM     15  O5  <0> d   1       4.483   2.795  -8.825  0.00  0.00    -0.321 OA
ENDROOT
BRANCH   1  16
ATOM     16  C5  <0> d   1       1.834  -1.837  -3.218  0.00  0.00    -0.031 A 
ATOM     17  C4  <0> d   1       1.798  -0.440  -3.128  0.00  0.00     0.014 A 
ATOM     18  C3  <0> d   1       1.181   0.164  -2.055  0.00  0.00     0.040 A 
ATOM     19  C2  <0> d   1       0.594  -0.608  -1.061  0.00  0.00     0.101 A 
ATOM     20  C7  <0> d   1       0.630  -2.000  -1.140  0.00  0.00     0.102 A 
ATOM     21  C6  <0> d   1       1.242  -2.615  -2.215  0.00  0.00     0.051 A 
BRANCH  19  22
ATOM     22  O1  <0> d   1      -0.014  -0.006  -0.006  0.00  0.00    -0.353 OA
ATOM     23  C1  <0> d   1      -0.015   1.423   0.012  0.00  0.00     0.210 C 
ENDBRANCH  19  22
BRANCH  20  24
ATOM     24  O2  <0> d   1       0.059  -2.752  -0.161  0.00  0.00    -0.353 OA
ATOM     25  C8  <0> d   1       0.134  -4.171  -0.306  0.00  0.00     0.210 C 
ENDBRANCH  20  24
ENDBRANCH   1  16
BRANCH  13  26
ATOM     26  C20 <0> d   1       3.455   4.934  -6.036  0.00  0.00     0.305 C 
BRANCH  26  27
ATOM     27  C21 <0> d   1       4.331   6.138  -6.385  0.00  0.00     0.302 C 
BRANCH  27  28
ATOM     28  N2  <0> d   1       3.825   7.330  -5.690  0.00  0.00     0.094 N 
ATOM     29  C25 <0> d   1       4.770   8.450  -5.808  0.00  0.00     0.298 C 
ATOM     30  C24 <0> d   1       4.234   9.648  -5.022  0.00  0.00     0.198 C 
ATOM     31  O6  <0> d   1       2.931   9.986  -5.507  0.00  0.00    -0.388 OA
ATOM     32  C23 <0> d   1       1.985   8.918  -5.406  0.00  0.00     0.198 C 
ATOM     33  C22 <0> d   1       2.499   7.712  -6.197  0.00  0.00     0.298 C 
ENDBRANCH  27  28
ENDBRANCH  26  27
ENDBRANCH  13  26
TORSDOF 6
