REMARK  7 active torsions:
REMARK  status: ('A' for Active; 'I' for Inactive)
REMARK    1  A    between atoms: C7_7  and  C8_8 
REMARK    2  A    between atoms: C14_15  and  O4_29 
REMARK    3  A    between atoms: C15_16  and  C17_19 
REMARK    4  A    between atoms: C17_19  and  N1_20 
REMARK    5  A    between atoms: N2_23  and  C22_26 
REMARK    6  A    between atoms: C22_26  and  C23_27 
REMARK    7  A    between atoms: C23_27  and  O3_28 
ROOT
ATOM      1  C8  <0> d   1       0.026   0.010   2.489  0.00  0.00     0.053 C 
ATOM      2  C9  <0> d   1      -0.056  -0.677   3.655  0.00  0.00     0.128 A 
ATOM      3  C10 <0> d   1      -0.174  -0.095   5.002  0.00  0.00     0.218 A 
ATOM      4  O1  <0> d   1      -0.218   1.085   5.303  0.00  0.00    -0.284 OA
ATOM      5  C11 <0> d   1      -0.227  -1.259   5.904  0.00  0.00     0.051 A 
ATOM      6  C12 <0> d   1      -0.335  -1.389   7.290  0.00  0.00     0.021 A 
ATOM      7  C13 <0> d   1      -0.359  -2.631   7.857  0.00  0.00     0.038 A 
ATOM      8  C14 <0> d   1      -0.276  -3.768   7.057  0.00  0.00     0.076 A 
ATOM      9  C15 <0> d   1      -0.168  -3.654   5.681  0.00  0.00     0.038 A 
ATOM     10  C16 <0> d   1      -0.142  -2.398   5.087  0.00  0.00     0.101 A 
ATOM     11  O2  <0> d   1      -0.050  -2.024   3.792  0.00  0.00    -0.305 OA
ENDROOT
BRANCH   9  12
ATOM     12  C17 <0> d   1      -0.077  -4.893   4.827  0.00  0.00     0.317 C 
BRANCH  12  13
ATOM     13  N1  <0> d   1      -1.428  -5.319   4.439  0.00  0.00     0.096 N 
ATOM     14  C21 <0> d   1      -1.374  -6.376   3.419  0.00  0.00     0.303 C 
ATOM     15  C20 <0> d   1      -2.797  -6.736   2.985  0.00  0.00     0.302 C 
ATOM     16  N2  <0> d   1      -3.567  -7.177   4.156  0.00  0.00     0.093 N 
ATOM     17  C19 <0> d   1      -3.621  -6.121   5.176  0.00  0.00     0.302 C 
ATOM     18  C18 <0> d   1      -2.198  -5.761   5.610  0.00  0.00     0.303 C 
BRANCH  16  19
ATOM     19  C22 <0> d   1      -4.918  -7.604   3.768  0.00  0.00     0.298 C 
BRANCH  19  20
ATOM     20  C23 <0> d   1      -4.826  -8.861   2.902  0.00  0.00     0.194 C 
BRANCH  20  21
ATOM     21  O3  <0> d   1      -4.298  -9.938   3.679  0.00  0.00    -0.399 OA
ATOM     22  H25 <0> d   1      -4.212 -10.769   3.192  0.00  0.00     0.209 HD
ENDBRANCH  20  21
ENDBRANCH  19  20
ENDBRANCH  16  19
ENDBRANCH  12  13
ENDBRANCH   9  12
BRANCH   8  23
ATOM     23  O4  <0> d   1      -0.301  -4.997   7.631  0.00  0.00    -0.360 OA
ATOM     24  H26 <0> d   1      -1.189  -5.369   7.727  0.00  0.00     0.217 HD
ENDBRANCH   8  23
BRANCH   1  25
ATOM     25  C7  <0> d   1      -0.020  -0.709   1.208  0.00  0.00    -0.028 A 
ATOM     26  C2  <0> d   1      -0.300  -0.018   0.024  0.00  0.00    -0.052 A 
ATOM     27  C1  <0> d   1      -0.557   1.467   0.057  0.00  0.00     0.049 C 
ATOM     28  C3  <0> d   1      -0.336  -0.699  -1.175  0.00  0.00     0.007 A 
ATOM     29  C4  <0> d   1      -0.101  -2.062  -1.208  0.00  0.00     0.001 A 
ATOM     30  C5  <0> d   1       0.172  -2.754  -0.041  0.00  0.00     0.001 A 
ATOM     31  C6  <0> d   1       0.211  -2.089   1.166  0.00  0.00     0.012 A 
ENDBRANCH   1  25
TORSDOF 7
