REMARK  4 active torsions:
REMARK  status: ('A' for Active; 'I' for Inactive)
REMARK    1  A    between atoms: C2_2  and  O1_3 
REMARK    2  A    between atoms: O1_3  and  C3_4 
REMARK    3  A    between atoms: C6_7  and  C9_11 
REMARK    4  A    between atoms: C10_12  and  C12_17 
ROOT
ATOM      1  C9  <0> d   1       0.972  -6.061   1.879  0.00  0.00     0.102 A 
ATOM      2  C10 <0> d   1       1.856  -6.721   2.769  0.00  0.00     0.022 A 
ATOM      3  C11 <0> d   1       1.865  -8.042   2.433  0.00  0.00     0.124 A 
ATOM      4  N1  <0> d   1       1.031  -8.207   1.386  0.00  0.00    -0.288 N 
ATOM      5  N2  <0> d   1       0.480  -6.963   1.058  0.00  0.00    -0.174 NA
ATOM      6  H1  <0> d   1       0.842  -9.047   0.938  0.00  0.00     0.188 HD
ENDROOT
BRANCH   1   7
ATOM      7  C6  <0> d   1       0.654  -4.613   1.878  0.00  0.00     0.032 A 
ATOM      8  C5  <0> d   1       0.334  -3.967   3.071  0.00  0.00     0.019 A 
ATOM      9  C4  <0> d   1       0.039  -2.620   3.068  0.00  0.00     0.038 A 
ATOM     10  C3  <0> d   1       0.060  -1.903   1.878  0.00  0.00     0.071 A 
ATOM     11  C8  <0> d   1       0.372  -2.540   0.686  0.00  0.00     0.077 A 
ATOM     12  C7  <0> d   1       0.675  -3.891   0.681  0.00  0.00     0.122 A 
ATOM     13  O2  <0> d   1       0.986  -4.515  -0.485  0.00  0.00    -0.191 OA
BRANCH  10  14
ATOM     14  O1  <0> d   1      -0.231  -0.576   1.881  0.00  0.00    -0.351 OA
BRANCH  14  15
ATOM     15  C2  <0> d   1      -0.543   0.017   3.144  0.00  0.00     0.171 C 
ATOM     16  C1  <0> d   1      -0.840   1.505   2.949  0.00  0.00     0.034 C 
ENDBRANCH  14  15
ENDBRANCH  10  14
ENDBRANCH   1   7
BRANCH   2  17
ATOM     17  C12 <0> d   1       2.630  -6.090   3.866  0.00  0.00    -0.022 A 
ATOM     18  C17 <0> d   1       2.510  -6.566   5.171  0.00  0.00     0.012 A 
ATOM     19  C16 <0> d   1       3.238  -5.979   6.186  0.00  0.00     0.001 A 
ATOM     20  C15 <0> d   1       4.075  -4.913   5.913  0.00  0.00     0.000 A 
ATOM     21  C14 <0> d   1       4.194  -4.433   4.621  0.00  0.00     0.001 A 
ATOM     22  C13 <0> d   1       3.476  -5.016   3.597  0.00  0.00     0.012 A 
ENDBRANCH   2  17
TORSDOF 4
