REMARK  6 active torsions:
REMARK  status: ('A' for Active; 'I' for Inactive)
REMARK    1  A    between atoms: C3_3  and  C17_22 
REMARK    2  A    between atoms: C8_9  and  O3_21 
REMARK    3  A    between atoms: C9_10  and  C11_13 
REMARK    4  A    between atoms: C11_13  and  N1_14 
REMARK    5  A    between atoms: C20_25  and  O5_30 
REMARK    6  A    between atoms: C21_26  and  O4_28 
ROOT
ATOM      1  C1  <0> d   1       1.932   0.191   2.224  0.00  0.00     0.077 C 
ATOM      2  C2  <0> d   1       2.856   0.296   1.038  0.00  0.00     0.065 A 
ATOM      3  C3  <0> d   1       2.480   1.066  -0.015  0.00  0.00     0.055 A 
ATOM      4  C4  <0> d   1       3.386   1.173  -1.172  0.00  0.00     0.198 A 
ATOM      5  O1  <0> d   1       3.103   1.852  -2.144  0.00  0.00    -0.286 OA
ATOM      6  C5  <0> d   1       4.650   0.419  -1.097  0.00  0.00     0.050 A 
ATOM      7  C6  <0> d   1       5.577   0.454  -2.140  0.00  0.00     0.021 A 
ATOM      8  C7  <0> d   1       6.738  -0.256  -2.039  0.00  0.00     0.038 A 
ATOM      9  C8  <0> d   1       7.002  -1.015  -0.900  0.00  0.00     0.076 A 
ATOM     10  C9  <0> d   1       6.092  -1.060   0.143  0.00  0.00     0.035 A 
ATOM     11  C10 <0> d   1       4.906  -0.343   0.056  0.00  0.00     0.100 A 
ATOM     12  O2  <0> d   1       4.010  -0.375   1.062  0.00  0.00    -0.313 OA
ENDROOT
BRANCH   3  13
ATOM     13  C17 <0> d   1       1.185   1.789   0.000  0.00  0.00    -0.017 A 
ATOM     14  C22 <0> d   1       1.164   3.182   0.008  0.00  0.00     0.052 A 
ATOM     15  C21 <0> d   1      -0.046   3.853   0.023  0.00  0.00     0.102 A 
ATOM     16  C20 <0> d   1      -1.239   3.136   0.031  0.00  0.00     0.101 A 
ATOM     17  C19 <0> d   1      -1.217   1.749   0.017  0.00  0.00     0.040 A 
ATOM     18  C18 <0> d   1      -0.013   1.076   0.008  0.00  0.00     0.015 A 
BRANCH  15  19
ATOM     19  O4  <0> d   1      -0.070   5.213   0.031  0.00  0.00    -0.353 OA
ATOM     20  C23 <0> d   1       1.192   5.884   0.023  0.00  0.00     0.210 C 
ENDBRANCH  15  19
BRANCH  16  21
ATOM     21  O5  <0> d   1      -2.428   3.796   0.045  0.00  0.00    -0.353 OA
ATOM     22  C24 <0> d   1      -3.614   2.997   0.052  0.00  0.00     0.210 C 
ENDBRANCH  16  21
ENDBRANCH   3  13
BRANCH  10  23
ATOM     23  C11 <0> d   1       6.389  -1.885   1.369  0.00  0.00     0.279 C 
BRANCH  23  24
ATOM     24  N1  <0> d   1       5.868  -3.245   1.182  0.00  0.00    -0.064 N 
ATOM     25  C15 <0> d   1       6.340  -4.141   2.246  0.00  0.00     0.265 C 
ATOM     26  C14 <0> d   1       5.843  -5.562   1.972  0.00  0.00     0.299 C 
ATOM     27  N2  <0> d   1       4.375  -5.559   1.903  0.00  0.00     0.087 N 
ATOM     28  C13 <0> d   1       3.902  -4.663   0.839  0.00  0.00     0.299 C 
ATOM     29  C16 <0> d   1       3.854  -6.920   1.716  0.00  0.00     0.310 C 
ATOM     30  C12 <0> d   1       4.400  -3.242   1.113  0.00  0.00     0.265 C 
ATOM     31  H29 <0> d   1       6.252  -3.624   0.223  0.00  0.00     0.280 HD
ENDBRANCH  23  24
ENDBRANCH  10  23
BRANCH   9  32
ATOM     32  O3  <0> d   1       8.160  -1.717  -0.812  0.00  0.00    -0.360 OA
ATOM     33  H19 <0> d   1       8.373  -2.317   0.084  0.00  0.00     0.217 HD
ENDBRANCH   9  32
TORSDOF 6
