REMARK  4 active torsions:
REMARK  status: ('A' for Active; 'I' for Inactive)
REMARK    1  A    between atoms: C4_4  and  C7_7 
REMARK    2  A    between atoms: C14_16  and  O4_33 
REMARK    3  A    between atoms: C15_17  and  C16_18 
REMARK    4  A    between atoms: C16_18  and  N1_19 
ROOT
ATOM      1  C7  <0> d   1      -4.628  -1.873   4.085  0.00  0.00     0.048 A 
ATOM      2  C8  <0> d   1      -4.525  -0.548   3.807  0.00  0.00     0.159 A 
ATOM      3  O1  <0> d   1      -4.455  -0.079   2.559  0.00  0.00    -0.320 OA
ATOM      4  C9  <0> d   1      -4.480  -0.871   1.468  0.00  0.00     0.100 A 
ATOM      5  C10 <0> d   1      -4.583  -2.266   1.607  0.00  0.00     0.050 A 
ATOM      6  C11 <0> d   1      -4.663  -2.831   2.966  0.00  0.00     0.197 A 
ATOM      7  O2  <0> d   1      -4.754  -4.032   3.155  0.00  0.00    -0.286 OA
ATOM      8  C12 <0> d   1      -4.608  -3.088   0.480  0.00  0.00     0.021 A 
ATOM      9  C13 <0> d   1      -4.531  -2.532  -0.766  0.00  0.00     0.038 A 
ATOM     10  C14 <0> d   1      -4.434  -1.150  -0.914  0.00  0.00     0.076 A 
ATOM     11  C15 <0> d   1      -4.403  -0.322   0.195  0.00  0.00     0.038 A 
ENDROOT
BRANCH  11  12
ATOM     12  C16 <0> d   1      -4.292   1.171   0.021  0.00  0.00     0.316 C 
BRANCH  12  13
ATOM     13  N1  <0> d   1      -2.875   1.558   0.006  0.00  0.00     0.093 N 
ATOM     14  C21 <0> d   1      -2.194   1.016  -1.180  0.00  0.00     0.283 C 
ATOM     15  C20 <0> d   1      -0.773   1.603  -1.219  0.00  0.00     0.065 C 
ATOM     16  C19 <0> d   1      -0.013   1.086   0.008  0.00  0.00     0.020 C 
ATOM     17  C22 <0> d   1      -0.901   3.107  -1.127  0.00  0.00     0.020 A 
ATOM     18  C18 <0> d   1      -0.748   1.589   1.253  0.00  0.00     0.033 C 
ATOM     19  C17 <0> d   1      -2.203   1.140   1.240  0.00  0.00     0.279 C 
ATOM     20  C27 <0> d   1      -0.621   3.100   1.338  0.00  0.00     0.138 C 
ATOM     21  N2  <0> d   1      -0.901   3.757   0.061  0.00  0.00    -0.317 N 
ATOM     22  C26 <0> d   1      -1.152   5.090   0.099  0.00  0.00     0.247 A 
ATOM     23  C25 <0> d   1      -1.283   5.829  -1.086  0.00  0.00     0.074 A 
ATOM     24  O3  <0> d   1      -1.265   5.651   1.177  0.00  0.00    -0.268 OA
ATOM     25  C24 <0> d   1      -1.206   5.182  -2.285  0.00  0.00     0.007 A 
ATOM     26  C23 <0> d   1      -1.021   3.795  -2.293  0.00  0.00     0.026 A 
ENDBRANCH  12  13
ENDBRANCH  11  12
BRANCH  10  27
ATOM     27  O4  <0> d   1      -4.365  -0.611  -2.158  0.00  0.00    -0.360 OA
ATOM     28  H24 <0> d   1      -4.289   0.480  -2.281  0.00  0.00     0.217 HD
ENDBRANCH  10  27
BRANCH   1  29
ATOM     29  C4  <0> d   1      -4.703  -2.348   5.489  0.00  0.00    -0.020 A 
ATOM     30  C3  <0> d   1      -3.773  -1.905   6.427  0.00  0.00     0.012 A 
ATOM     31  C2  <0> d   1      -3.848  -2.349   7.732  0.00  0.00     0.001 A 
ATOM     32  C1  <0> d   1      -4.844  -3.232   8.108  0.00  0.00     0.000 A 
ATOM     33  C6  <0> d   1      -5.770  -3.675   7.181  0.00  0.00     0.001 A 
ATOM     34  C5  <0> d   1      -5.707  -3.233   5.875  0.00  0.00     0.012 A 
ENDBRANCH   1  29
TORSDOF 4
