REMARK  5 active torsions:
REMARK  status: ('A' for Active; 'I' for Inactive)
REMARK    1  A    between atoms: C6_6  and  C11_13 
REMARK    2  A    between atoms: C11_13  and  N1_14 
REMARK    3  A    between atoms: N2_17  and  C16_20 
REMARK    4  A    between atoms: C16_20  and  C17_21 
REMARK    5  A    between atoms: C17_21  and  C18_22 
ROOT
ATOM      1  N1  <0> d   1      -1.315  -5.181  -1.794  0.00  0.00     0.096 N 
ATOM      2  C12 <0> d   1      -1.904  -3.889  -2.171  0.00  0.00     0.303 C 
ATOM      3  C13 <0> d   1      -3.363  -4.098  -2.583  0.00  0.00     0.302 C 
ATOM      4  N2  <0> d   1      -3.423  -5.047  -3.703  0.00  0.00     0.092 N 
ATOM      5  C14 <0> d   1      -2.833  -6.340  -3.326  0.00  0.00     0.302 C 
ATOM      6  C15 <0> d   1      -1.374  -6.131  -2.915  0.00  0.00     0.303 C 
ENDROOT
BRANCH   1   7
ATOM      7  C11 <0> d   1       0.066  -5.012  -1.320  0.00  0.00     0.312 C 
BRANCH   7   8
ATOM      8  C6  <0> d   1       0.061  -4.234  -0.030  0.00  0.00    -0.011 A 
ATOM      9  C5  <0> d   1       0.040  -2.768  -0.035  0.00  0.00     0.006 A 
ATOM     10  C4  <0> d   1       0.025  -2.050  -1.235  0.00  0.00     0.015 A 
ATOM     11  C9  <0> d   1       0.037  -2.082   1.193  0.00  0.00     0.090 A 
ATOM     12  C3  <0> d   1       0.006  -0.684  -1.207  0.00  0.00     0.007 A 
ATOM     13  C2  <0> d   1       0.002  -0.004   0.002  0.00  0.00    -0.059 A 
ATOM     14  C1  <0> d   1      -0.018   1.503   0.010  0.00  0.00     0.048 C 
ATOM     15  C10 <0> d   1       0.023  -0.693   1.196  0.00  0.00     0.045 A 
ATOM     16  O2  <0> d   1       0.053  -2.776   2.350  0.00  0.00    -0.275 OA
ATOM     17  C8  <0> d   1       0.072  -4.118   2.363  0.00  0.00     0.288 A 
ATOM     18  C7  <0> d   1       0.077  -4.870   1.169  0.00  0.00     0.092 A 
ATOM     19  O1  <0> d   1       0.086  -4.701   3.432  0.00  0.00    -0.260 OA
ENDBRANCH   7   8
ENDBRANCH   1   7
BRANCH   4  20
ATOM     20  C16 <0> d   1      -4.803  -5.217  -4.177  0.00  0.00     0.278 C 
BRANCH  20  21
ATOM     21  C17 <0> d   1      -4.798  -6.007  -5.487  0.00  0.00     0.089 C 
BRANCH  21  22
ATOM     22  C18 <0> d   1      -6.214  -6.181  -5.974  0.00  0.00     0.035 A 
ATOM     23  N3  <0> d   1      -7.114  -6.724  -5.178  0.00  0.00    -0.266 NA
ATOM     24  C22 <0> d   1      -8.366  -6.891  -5.559  0.00  0.00     0.117 A 
ATOM     25  C21 <0> d   1      -8.778  -6.508  -6.822  0.00  0.00     0.019 A 
ATOM     26  C20 <0> d   1      -7.858  -5.938  -7.688  0.00  0.00     0.003 A 
ATOM     27  C19 <0> d   1      -6.553  -5.773  -7.250  0.00  0.00     0.027 A 
ENDBRANCH  21  22
ENDBRANCH  20  21
ENDBRANCH   4  20
TORSDOF 5
