REMARK  6 active torsions:
REMARK  status: ('A' for Active; 'I' for Inactive)
REMARK    1  A    between atoms: C3_3  and  C19_26 
REMARK    2  A    between atoms: C4_4  and  C5_8 
REMARK    3  A    between atoms: C8_11  and  O2_15 
REMARK    4  A    between atoms: O2_15  and  C11_16 
REMARK    5  A    between atoms: C11_16  and  C12_17 
REMARK    6  A    between atoms: C12_17  and  N3_18 
ROOT
ATOM      1  C5  <0> d   1       0.158  -2.343   2.497  0.00  0.00     0.032 A 
ATOM      2  C6  <0> d   1      -0.203  -2.265   3.840  0.00  0.00     0.019 A 
ATOM      3  C7  <0> d   1      -0.367  -3.419   4.578  0.00  0.00     0.038 A 
ATOM      4  C8  <0> d   1      -0.174  -4.660   3.986  0.00  0.00     0.071 A 
ATOM      5  C9  <0> d   1       0.186  -4.747   2.649  0.00  0.00     0.077 A 
ATOM      6  C10 <0> d   1       0.347  -3.594   1.899  0.00  0.00     0.122 A 
ATOM      7  O1  <0> d   1       0.694  -3.677   0.588  0.00  0.00    -0.191 OA
ENDROOT
BRANCH   1   8
ATOM      8  C4  <0> d   1       0.334  -1.105   1.701  0.00  0.00     0.103 A 
ATOM      9  C3  <0> d   1       1.056   0.048   2.100  0.00  0.00     0.029 A 
ATOM     10  C2  <0> d   1       0.974   0.954   1.085  0.00  0.00     0.037 A 
ATOM     11  C1  <0> d   1       1.593   2.328   1.069  0.00  0.00     0.070 C 
ATOM     12  N2  <0> d   1       0.235   0.404   0.099  0.00  0.00    -0.281 N 
ATOM     13  N1  <0> d   1      -0.150  -0.881   0.499  0.00  0.00    -0.173 NA
ATOM     14  H1  <0> d   1       0.010   0.827  -0.744  0.00  0.00     0.189 HD
BRANCH   9  15
ATOM     15  C19 <0> d   1       1.769   0.235   3.387  0.00  0.00    -0.021 A 
ATOM     16  C24 <0> d   1       1.309   1.171   4.312  0.00  0.00     0.014 A 
ATOM     17  C23 <0> d   1       1.973   1.338   5.510  0.00  0.00     0.024 A 
ATOM     18  C22 <0> d   1       3.101   0.585   5.790  0.00  0.00     0.034 A 
ATOM     19  C21 <0> d   1       3.565  -0.342   4.872  0.00  0.00     0.024 A 
ATOM     20 Cl1  <0> d   1       3.935   0.804   7.296  0.00  0.00    -0.084 Cl
ATOM     21  C20 <0> d   1       2.905  -0.520   3.674  0.00  0.00     0.014 A 
ENDBRANCH   9  15
ENDBRANCH   1   8
BRANCH   4  22
ATOM     22  O2  <0> d   1      -0.336  -5.793   4.718  0.00  0.00    -0.349 OA
BRANCH  22  23
ATOM     23  C11 <0> d   1      -0.122  -7.036   4.047  0.00  0.00     0.206 C 
BRANCH  23  24
ATOM     24  C12 <0> d   1      -0.349  -8.190   5.025  0.00  0.00     0.299 C 
BRANCH  24  25
ATOM     25  N3  <0> d   1      -1.757  -8.205   5.445  0.00  0.00     0.095 N 
ATOM     26  C16 <0> d   1      -2.617  -8.749   4.384  0.00  0.00     0.303 C 
ATOM     27  C15 <0> d   1      -4.078  -8.691   4.840  0.00  0.00     0.146 C 
ATOM     28  O3  <0> d   1      -4.217  -9.408   6.070  0.00  0.00    -0.378 OA
ATOM     29  C17 <0> d   1      -4.972  -9.328   3.774  0.00  0.00     0.041 C 
ATOM     30  C14 <0> d   1      -3.393  -8.905   7.125  0.00  0.00     0.146 C 
ATOM     31  C13 <0> d   1      -1.926  -8.964   6.693  0.00  0.00     0.303 C 
ATOM     32  C18 <0> d   1      -3.778  -7.455   7.428  0.00  0.00     0.041 C 
ENDBRANCH  24  25
ENDBRANCH  23  24
ENDBRANCH  22  23
ENDBRANCH   4  22
TORSDOF 6
