REMARK  6 active torsions:
REMARK  status: ('A' for Active; 'I' for Inactive)
REMARK    1  A    between atoms: C2_2  and  O1_3 
REMARK    2  A    between atoms: O1_3  and  C3_4 
REMARK    3  A    between atoms: C3_4  and  C4_6 
REMARK    4  A    between atoms: C8_11  and  C12_16 
REMARK    5  A    between atoms: C9_12  and  O3_15 
REMARK    6  A    between atoms: C12_16  and  N2_17 
ROOT
ATOM      1  C4  <0> d   1       1.276  -1.980  -2.083  0.00  0.00     0.075 A 
ATOM      2  C5  <0> d   1       2.639  -2.048  -2.029  0.00  0.00     0.025 A 
ATOM      3  N1  <0> d   1       3.117  -2.574  -3.181  0.00  0.00    -0.353 N 
ATOM      4  C6  <0> d   1       2.079  -2.874  -4.042  0.00  0.00     0.046 A 
ATOM      5  C7  <0> d   1       0.882  -2.524  -3.396  0.00  0.00     0.020 A 
ATOM      6  C8  <0> d   1      -0.340  -2.723  -4.032  0.00  0.00     0.017 A 
ATOM      7  C9  <0> d   1      -0.369  -3.270  -5.301  0.00  0.00     0.074 A 
ATOM      8  C10 <0> d   1       0.817  -3.620  -5.939  0.00  0.00     0.039 A 
ATOM      9  C11 <0> d   1       2.032  -3.419  -5.321  0.00  0.00     0.033 A 
ATOM     10  C18 <0> d   1       4.535  -2.794  -3.474  0.00  0.00     0.156 C 
ATOM     11  C19 <0> d   1       3.483  -1.604  -0.863  0.00  0.00     0.069 C 
ENDROOT
BRANCH   6  12
ATOM     12  C12 <0> d   1      -1.625  -2.345  -3.341  0.00  0.00     0.315 C 
BRANCH  12  13
ATOM     13  N2  <0> d   1      -2.046  -3.440  -2.457  0.00  0.00     0.096 N 
ATOM     14  C16 <0> d   1      -3.057  -2.981  -1.495  0.00  0.00     0.303 C 
ATOM     15  C15 <0> d   1      -3.410  -4.127  -0.544  0.00  0.00     0.302 C 
ATOM     16  N3  <0> d   1      -3.908  -5.270  -1.322  0.00  0.00     0.087 N 
ATOM     17  C14 <0> d   1      -2.897  -5.729  -2.284  0.00  0.00     0.302 C 
ATOM     18  C17 <0> d   1      -4.329  -6.365  -0.438  0.00  0.00     0.310 C 
ATOM     19  C13 <0> d   1      -2.543  -4.583  -3.235  0.00  0.00     0.303 C 
ENDBRANCH  12  13
ENDBRANCH   6  12
BRANCH   7  20
ATOM     20  O3  <0> d   1      -1.559  -3.467  -5.928  0.00  0.00    -0.360 OA
ATOM     21  H8  <0> d   1      -1.853  -2.714  -6.460  0.00  0.00     0.217 HD
ENDBRANCH   7  20
BRANCH   1  22
ATOM     22  C3  <0> d   1       0.380  -1.472  -1.038  0.00  0.00     0.296 C 
ATOM     23  O2  <0> d   1       0.005  -2.211  -0.147  0.00  0.00    -0.259 OA
BRANCH  22  24
ATOM     24  O1  <0> d   1      -0.027  -0.187  -1.065  0.00  0.00    -0.318 OA
BRANCH  24  25
ATOM     25  C2  <0> d   1      -0.899   0.239  -0.016  0.00  0.00     0.174 C 
ATOM     26  C1  <0> d   1      -1.251   1.715  -0.214  0.00  0.00     0.034 C 
ENDBRANCH  24  25
ENDBRANCH  22  24
ENDBRANCH   1  22
TORSDOF 6
