REMARK  9 active torsions:
REMARK  status: ('A' for Active; 'I' for Inactive)
REMARK    1  A    between atoms: C2_2  and  C3_3 
REMARK    2  A    between atoms: C7_8  and  C22_28 
REMARK    3  A    between atoms: C8_9  and  C19_25 
REMARK    4  A    between atoms: C10_12  and  C12_15 
REMARK    5  A    between atoms: C11_13  and  O3_14 
REMARK    6  A    between atoms: C12_15  and  N1_16 
REMARK    7  A    between atoms: N2_19  and  C17_22 
REMARK    8  A    between atoms: C17_22  and  C18_23 
REMARK    9  A    between atoms: C18_23  and  O4_24 
ROOT
ATOM      1  C3  <0> d   1      -1.044   3.709   4.717  0.00  0.00    -0.024 A 
ATOM      2  C4  <0> d   1      -2.090   2.993   5.228  0.00  0.00     0.028 A 
ATOM      3  C5  <0> d   1      -2.256   1.656   4.866  0.00  0.00     0.050 A 
ATOM      4  C6  <0> d   1      -3.373   0.854   5.397  0.00  0.00     0.201 A 
ATOM      5  O1  <0> d   1      -4.189   1.326   6.169  0.00  0.00    -0.286 OA
ATOM      6  C7  <0> d   1      -3.454  -0.549   4.949  0.00  0.00     0.091 A 
ATOM      7  C8  <0> d   1      -2.510  -1.014   4.085  0.00  0.00     0.075 A 
ATOM      8  O2  <0> d   1      -1.516  -0.250   3.630  0.00  0.00    -0.312 OA
ATOM      9  C9  <0> d   1      -1.354   1.041   3.980  0.00  0.00     0.100 A 
ATOM     10  C10 <0> d   1      -0.297   1.783   3.470  0.00  0.00     0.038 A 
ATOM     11  C11 <0> d   1      -0.141   3.108   3.844  0.00  0.00     0.082 A 
ENDROOT
BRANCH  10  12
ATOM     12  C12 <0> d   1       0.683   1.146   2.519  0.00  0.00     0.317 C 
BRANCH  12  13
ATOM     13  N1  <0> d   1       0.214   1.328   1.139  0.00  0.00     0.096 N 
ATOM     14  C16 <0> d   1      -0.219   2.713   0.906  0.00  0.00     0.303 C 
ATOM     15  C15 <0> d   1      -0.773   2.841  -0.514  0.00  0.00     0.302 C 
ATOM     16  N2  <0> d   1       0.263   2.447  -1.479  0.00  0.00     0.093 N 
ATOM     17  C14 <0> d   1       0.695   1.062  -1.247  0.00  0.00     0.302 C 
ATOM     18  C13 <0> d   1       1.250   0.934   0.174  0.00  0.00     0.303 C 
BRANCH  16  19
ATOM     19  C17 <0> d   1      -0.206   2.628  -2.859  0.00  0.00     0.298 C 
BRANCH  19  20
ATOM     20  C18 <0> d   1      -0.736   4.053  -3.034  0.00  0.00     0.194 C 
BRANCH  20  21
ATOM     21  O4  <0> d   1       0.336   4.984  -2.874  0.00  0.00    -0.399 OA
ATOM     22  H22 <0> d   1       0.145   6.063  -2.966  0.00  0.00     0.209 HD
ENDBRANCH  20  21
ENDBRANCH  19  20
ENDBRANCH  16  19
ENDBRANCH  12  13
ENDBRANCH  10  12
BRANCH  11  23
ATOM     23  O3  <0> d   1       0.897   3.829   3.348  0.00  0.00    -0.359 OA
ATOM     24  H7  <0> d   1       1.613   3.359   2.658  0.00  0.00     0.217 HD
ENDBRANCH  11  23
BRANCH   1  25
ATOM     25  C2  <0> d   1      -0.863   5.153   5.106  0.00  0.00     0.037 C 
ATOM     26  C1  <0> d   1      -1.518   6.051   4.054  0.00  0.00     0.010 C 
ENDBRANCH   1  25
BRANCH   7  27
ATOM     27  C19 <0> d   1      -2.591  -2.447   3.625  0.00  0.00     0.036 C 
ATOM     28  C20 <0> d   1      -2.881  -2.485   2.124  0.00  0.00     0.016 C 
ATOM     29  C21 <0> d   1      -1.261  -3.149   3.906  0.00  0.00     0.016 C 
ENDBRANCH   7  27
BRANCH   6  30
ATOM     30  C22 <0> d   1      -4.538  -1.431   5.426  0.00  0.00     0.147 A 
ATOM     31  N4  <0> d   1      -4.818  -1.694   6.741  0.00  0.00    -0.333 N 
ATOM     32  C28 <0> d   1      -5.899  -2.555   6.763  0.00  0.00     0.064 A 
ATOM     33  C29 <0> d   1      -4.107  -1.160   7.905  0.00  0.00     0.158 C 
ATOM     34  C23 <0> d   1      -6.238  -2.796   5.420  0.00  0.00     0.086 A 
ATOM     35  C27 <0> d   1      -6.625  -3.162   7.778  0.00  0.00     0.032 A 
ATOM     36  N3  <0> d   1      -5.374  -2.084   4.655  0.00  0.00    -0.228 NA
ATOM     37  C24 <0> d   1      -7.307  -3.647   5.123  0.00  0.00     0.034 A 
ATOM     38  C25 <0> d   1      -8.010  -4.236   6.136  0.00  0.00     0.002 A 
ATOM     39  C26 <0> d   1      -7.675  -3.998   7.462  0.00  0.00     0.002 A 
ENDBRANCH   6  30
TORSDOF 9
