REMARK  5 active torsions:
REMARK  status: ('A' for Active; 'I' for Inactive)
REMARK    1  A    between atoms: C6_6  and  C12_14 
REMARK    2  A    between atoms: C12_14  and  N1_15 
REMARK    3  A    between atoms: N2_18  and  C17_21 
REMARK    4  A    between atoms: C17_21  and  C18_22 
REMARK    5  A    between atoms: C19_23  and  C20_24 
ROOT
ATOM      1  N1  <0> d   1      -0.602  -2.927  -1.345  0.00  0.00    -0.064 N 
ATOM      2  C13 <0> d   1      -0.965  -1.552  -1.716  0.00  0.00     0.265 C 
ATOM      3  C14 <0> d   1      -1.532  -1.542  -3.137  0.00  0.00     0.300 C 
ATOM      4  N2  <0> d   1      -2.703  -2.428  -3.201  0.00  0.00     0.095 N 
ATOM      5  C15 <0> d   1      -2.340  -3.803  -2.830  0.00  0.00     0.300 C 
ATOM      6  C16 <0> d   1      -1.773  -3.812  -1.408  0.00  0.00     0.265 C 
ATOM      7  H29 <0> d   1       0.139  -3.291  -2.072  0.00  0.00     0.280 HD
ENDROOT
BRANCH   1   8
ATOM      8  C12 <0> d   1       0.016  -2.967  -0.013  0.00  0.00     0.274 C 
BRANCH   8   9
ATOM      9  C6  <0> d   1       1.401  -2.376  -0.084  0.00  0.00    -0.014 A 
ATOM     10  C5  <0> d   1       2.508  -3.121  -0.691  0.00  0.00     0.007 A 
ATOM     11  C4  <0> d   1       2.312  -4.400  -1.220  0.00  0.00     0.015 A 
ATOM     12  C9  <0> d   1       3.783  -2.530  -0.736  0.00  0.00     0.096 A 
ATOM     13  C3  <0> d   1       3.364  -5.070  -1.779  0.00  0.00     0.008 A 
ATOM     14  C2  <0> d   1       4.624  -4.490  -1.826  0.00  0.00    -0.053 A 
ATOM     15  C1  <0> d   1       5.770  -5.246  -2.447  0.00  0.00     0.049 C 
ATOM     16  C10 <0> d   1       4.837  -3.230  -1.309  0.00  0.00    -0.021 A 
ATOM     17  C11 <0> d   1       6.211  -2.612  -1.367  0.00  0.00     0.052 C 
ATOM     18  O2  <0> d   1       3.970  -1.294  -0.226  0.00  0.00    -0.274 OA
ATOM     19  C8  <0> d   1       2.961  -0.606   0.331  0.00  0.00     0.288 A 
ATOM     20  C7  <0> d   1       1.656  -1.138   0.410  0.00  0.00     0.092 A 
ATOM     21  O1  <0> d   1       3.178   0.505   0.779  0.00  0.00    -0.260 OA
ENDBRANCH   8   9
ENDBRANCH   1   8
BRANCH   4  22
ATOM     22  C17 <0> d   1      -3.322  -2.388  -4.532  0.00  0.00     0.300 C 
BRANCH  22  23
ATOM     23  C18 <0> d   1      -3.454  -0.955  -4.982  0.00  0.00     0.004 C 
ATOM     24  C19 <0> d   1      -2.935  -0.573  -6.140  0.00  0.00     0.009 C 
BRANCH  24  25
ATOM     25  C20 <0> d   1      -3.065   0.832  -6.580  0.00  0.00    -0.036 A 
ATOM     26  C25 <0> d   1      -2.520   1.238  -7.799  0.00  0.00     0.011 A 
ATOM     27  C24 <0> d   1      -2.645   2.551  -8.204  0.00  0.00     0.001 A 
ATOM     28  C23 <0> d   1      -3.309   3.464  -7.406  0.00  0.00     0.000 A 
ATOM     29  C22 <0> d   1      -3.852   3.068  -6.196  0.00  0.00     0.001 A 
ATOM     30  C21 <0> d   1      -3.739   1.757  -5.782  0.00  0.00     0.011 A 
ENDBRANCH  24  25
ENDBRANCH  22  23
ENDBRANCH   4  22
TORSDOF 5
