REMARK  5 active torsions:
REMARK  status: ('A' for Active; 'I' for Inactive)
REMARK    1  A    between atoms: C4_5  and  C6_7 
REMARK    2  A    between atoms: C6_7  and  C7_8 
REMARK    3  A    between atoms: C7_8  and  N2_9 
REMARK    4  A    between atoms: N3_12  and  C12_15 
REMARK    5  A    between atoms: C12_15  and  C13_16 
ROOT
ATOM      1  N2  <0> d   1      -0.647  -2.504   3.211  0.00  0.00    -0.067 N 
ATOM      2  C8  <0> d   1      -2.007  -2.920   2.841  0.00  0.00     0.265 C 
ATOM      3  C9  <0> d   1      -2.315  -2.442   1.420  0.00  0.00     0.300 C 
ATOM      4  N3  <0> d   1      -2.178  -0.980   1.357  0.00  0.00     0.096 N 
ATOM      5  C10 <0> d   1      -0.818  -0.565   1.727  0.00  0.00     0.300 C 
ATOM      6  C11 <0> d   1      -0.510  -1.042   3.148  0.00  0.00     0.265 C 
ATOM      7  H28 <0> d   1       0.052  -2.942   2.483  0.00  0.00     0.280 HD
ENDROOT
BRANCH   4   8
ATOM      8  C12 <0> d   1      -2.539  -0.474   0.025  0.00  0.00     0.312 C 
BRANCH   8   9
ATOM      9  C13 <0> d   1      -2.764   1.014   0.098  0.00  0.00    -0.011 A 
ATOM     10  C17 <0> d   1      -3.977   1.563   0.712  0.00  0.00     0.007 A 
ATOM     11  C16 <0> d   1      -4.150   2.958   0.751  0.00  0.00     0.090 A 
ATOM     12  C18 <0> d   1      -4.966   0.726   1.234  0.00  0.00     0.022 A 
ATOM     13  O2  <0> d   1      -3.198   3.768   0.241  0.00  0.00    -0.275 OA
ATOM     14  C21 <0> d   1      -5.298   3.484   1.325  0.00  0.00     0.046 A 
ATOM     15  C15 <0> d   1      -2.082   3.273  -0.316  0.00  0.00     0.288 A 
ATOM     16  C14 <0> d   1      -1.847   1.883  -0.397  0.00  0.00     0.092 A 
ATOM     17  O1  <0> d   1      -1.251   4.042  -0.764  0.00  0.00    -0.260 OA
ATOM     18  C20 <0> d   1      -6.264   2.640   1.844  0.00  0.00    -0.049 A 
ATOM     19  C19 <0> d   1      -6.094   1.264   1.795  0.00  0.00    -0.051 A 
ATOM     20  C22 <0> d   1      -7.584   2.966   2.510  0.00  0.00     0.039 C 
ATOM     21  C24 <0> d   1      -7.289   0.580   2.424  0.00  0.00     0.039 C 
ATOM     22  C23 <0> d   1      -8.396   1.654   2.464  0.00  0.00     0.009 C 
ENDBRANCH   8   9
ENDBRANCH   4   8
BRANCH   1  23
ATOM     23  C7  <0> d   1      -0.286  -3.010   4.542  0.00  0.00     0.241 C 
BRANCH  23  24
ATOM     24  C6  <0> d   1       1.206  -2.776   4.789  0.00  0.00     0.087 C 
BRANCH  24  25
ATOM     25  C4  <0> d   1       1.577  -3.295   6.154  0.00  0.00     0.035 A 
ATOM     26  N1  <0> d   1       0.924  -2.861   7.215  0.00  0.00    -0.266 NA
ATOM     27  C3  <0> d   1       1.211  -3.291   8.429  0.00  0.00     0.117 A 
ATOM     28  C2  <0> d   1       2.221  -4.211   8.633  0.00  0.00     0.019 A 
ATOM     29  C1  <0> d   1       2.933  -4.686   7.541  0.00  0.00     0.003 A 
ATOM     30  C5  <0> d   1       2.600  -4.216   6.281  0.00  0.00     0.027 A 
ENDBRANCH  24  25
ENDBRANCH  23  24
ENDBRANCH   1  23
TORSDOF 5
