REMARK  4 active torsions:
REMARK  status: ('A' for Active; 'I' for Inactive)
REMARK    1  A    between atoms: N2_5  and  C6_8 
REMARK    2  A    between atoms: C6_8  and  C7_9 
REMARK    3  A    between atoms: C8_10  and  O3_26 
REMARK    4  A    between atoms: C14_17  and  C15_18 
ROOT
ATOM      1  C7  <0> d   1       4.192   0.311   2.396  0.00  0.00     0.038 A 
ATOM      2  C8  <0> d   1       5.309  -0.133   1.706  0.00  0.00     0.076 A 
ATOM      3  C9  <0> d   1       6.515   0.556   1.793  0.00  0.00     0.038 A 
ATOM      4  C10 <0> d   1       6.612   1.675   2.571  0.00  0.00     0.021 A 
ATOM      5  C11 <0> d   1       5.497   2.131   3.275  0.00  0.00     0.051 A 
ATOM      6  C12 <0> d   1       4.273   1.447   3.191  0.00  0.00     0.101 A 
ATOM      7  O1  <0> d   1       3.348   2.071   3.953  0.00  0.00    -0.305 OA
ATOM      8  C13 <0> d   1       3.858   3.162   4.572  0.00  0.00     0.128 A 
ATOM      9  C14 <0> d   1       3.189   3.998   5.402  0.00  0.00     0.054 C 
ATOM     10  C20 <0> d   1       5.272   3.274   4.178  0.00  0.00     0.218 A 
ATOM     11  O2  <0> d   1       6.077   4.122   4.522  0.00  0.00    -0.284 OA
ENDROOT
BRANCH   1  12
ATOM     12  C6  <0> d   1       2.891  -0.442   2.287  0.00  0.00     0.317 C 
BRANCH  12  13
ATOM     13  N2  <0> d   1       2.105   0.097   1.170  0.00  0.00     0.096 N 
ATOM     14  C3  <0> d   1       2.086   1.566   1.200  0.00  0.00     0.300 C 
ATOM     15  C2  <0> d   1       1.325   2.089  -0.022  0.00  0.00     0.264 C 
ATOM     16  N1  <0> d   1      -0.041   1.547  -0.014  0.00  0.00    -0.072 N 
ATOM     17  C1  <0> d   1      -0.827   2.086  -1.132  0.00  0.00     0.269 C 
ATOM     18  C5  <0> d   1      -0.021   0.078  -0.044  0.00  0.00     0.264 C 
ATOM     19  H22 <0> d   1      -0.526   1.861   0.922  0.00  0.00     0.279 HD
ATOM     20  C4  <0> d   1       0.739  -0.445   1.177  0.00  0.00     0.300 C 
ENDBRANCH  12  13
ENDBRANCH   1  12
BRANCH   2  21
ATOM     21  O3  <0> d   1       5.225  -1.247   0.935  0.00  0.00    -0.360 OA
ATOM     22  H21 <0> d   1       6.109  -1.604   0.386  0.00  0.00     0.217 HD
ENDBRANCH   2  21
BRANCH   9  23
ATOM     23  C15 <0> d   1       1.744   3.823   5.614  0.00  0.00    -0.016 A 
ATOM     24  C19 <0> d   1       1.018   4.751   6.368  0.00  0.00     0.127 A 
ATOM     25  N3  <0> d   1      -0.275   4.593   6.557  0.00  0.00    -0.272 NA
ATOM     26  C18 <0> d   1      -0.934   3.567   6.050  0.00  0.00     0.116 A 
ATOM     27  C17 <0> d   1      -0.289   2.606   5.292  0.00  0.00     0.020 A 
ATOM     28  C16 <0> d   1       1.069   2.726   5.058  0.00  0.00     0.014 A 
ENDBRANCH   9  23
TORSDOF 4
