REMARK  7 active torsions:
REMARK  status: ('A' for Active; 'I' for Inactive)
REMARK    1  A    between atoms: C2_2  and  N1_3 
REMARK    2  A    between atoms: C4_5  and  C12_14 
REMARK    3  A    between atoms: C9_10  and  O1_12 
REMARK    4  A    between atoms: C18_21  and  O4_34 
REMARK    5  A    between atoms: C19_22  and  C21_25 
REMARK    6  A    between atoms: C21_25  and  N2_26 
REMARK    7  A    between atoms: N3_29  and  C26_32 
ROOT
ATOM      1  C12 <0> d   1      -1.337   4.675   0.038  0.00  0.00     0.055 C 
ATOM      2  C13 <0> d   1      -0.568   3.550   0.026  0.00  0.00     0.128 A 
ATOM      3  C14 <0> d   1       0.851   3.514   0.012  0.00  0.00     0.218 A 
ATOM      4  O2  <0> d   1       1.616   4.465   0.010  0.00  0.00    -0.284 OA
ATOM      5  C15 <0> d   1       1.202   2.083   0.002  0.00  0.00     0.051 A 
ATOM      6  C16 <0> d   1       2.412   1.391  -0.014  0.00  0.00     0.021 A 
ATOM      7  C17 <0> d   1       2.414   0.024  -0.021  0.00  0.00     0.038 A 
ATOM      8  C18 <0> d   1       1.212  -0.678  -0.013  0.00  0.00     0.076 A 
ATOM      9  C19 <0> d   1       0.002  -0.004   0.002  0.00  0.00     0.038 A 
ATOM     10  C20 <0> d   1      -0.017   1.384   0.010  0.00  0.00     0.101 A 
ATOM     11  O3  <0> d   1      -1.030   2.277   0.019  0.00  0.00    -0.305 OA
ENDROOT
BRANCH   1  12
ATOM     12  C4  <0> d   1      -2.794   4.565   0.051  0.00  0.00    -0.005 A 
ATOM     13  C3  <0> d   1      -3.535   3.403   0.053  0.00  0.00     0.103 A 
ATOM     14  N1  <0> d   1      -4.856   3.709   0.068  0.00  0.00    -0.356 N 
ATOM     15  C6  <0> d   1      -5.036   5.079   0.075  0.00  0.00     0.045 A 
ATOM     16  C5  <0> d   1      -3.765   5.676   0.072  0.00  0.00     0.005 A 
ATOM     17  C7  <0> d   1      -6.169   5.885   0.091  0.00  0.00     0.033 A 
ATOM     18  C10 <0> d   1      -3.644   7.062   0.071  0.00  0.00     0.051 A 
ATOM     19  C9  <0> d   1      -4.781   7.848   0.086  0.00  0.00     0.069 A 
ATOM     20  C8  <0> d   1      -6.040   7.256   0.096  0.00  0.00     0.039 A 
BRANCH  14  21
ATOM     21  C2  <0> d   1      -5.941   2.724   0.074  0.00  0.00     0.124 C 
ATOM     22  C1  <0> d   1      -6.417   2.481  -1.359  0.00  0.00     0.027 C 
ENDBRANCH  14  21
BRANCH  19  23
ATOM     23  O1  <0> d   1      -4.669   9.204   0.092  0.00  0.00    -0.356 OA
ATOM     24  C11 <0> d   1      -5.885   9.955   0.108  0.00  0.00     0.210 C 
ENDBRANCH  19  23
ENDBRANCH   1  12
BRANCH   9  25
ATOM     25  C21 <0> d   1      -1.292  -0.776   0.010  0.00  0.00     0.317 C 
BRANCH  25  26
ATOM     26  N2  <0> d   1      -1.725  -1.020  -1.373  0.00  0.00     0.096 N 
ATOM     27  C25 <0> d   1      -2.848  -1.967  -1.414  0.00  0.00     0.300 C 
ATOM     28  C24 <0> d   1      -3.217  -2.254  -2.871  0.00  0.00     0.265 C 
ATOM     29  N3  <0> d   1      -3.569  -0.995  -3.542  0.00  0.00    -0.068 N 
ATOM     30  C23 <0> d   1      -2.446  -0.048  -3.501  0.00  0.00     0.265 C 
ATOM     31  H32 <0> d   1      -4.413  -0.545  -2.999  0.00  0.00     0.280 HD
ATOM     32  C22 <0> d   1      -2.077   0.239  -2.044  0.00  0.00     0.300 C 
BRANCH  29  33
ATOM     33  C26 <0> d   1      -4.002  -1.238  -4.925  0.00  0.00     0.230 C 
ATOM     34  C27 <0> d   1      -4.593   0.047  -5.508  0.00  0.00     0.034 C 
ENDBRANCH  29  33
ENDBRANCH  25  26
ENDBRANCH   9  25
BRANCH   8  35
ATOM     35  O4  <0> d   1       1.226  -2.036  -0.020  0.00  0.00    -0.360 OA
ATOM     36  H31 <0> d   1       0.279  -2.596  -0.014  0.00  0.00     0.217 HD
ENDBRANCH   8  35
TORSDOF 7
