REMARK  6 active torsions:
REMARK  status: ('A' for Active; 'I' for Inactive)
REMARK    1  A    between atoms: C2_2  and  O1_3 
REMARK    2  A    between atoms: O1_3  and  C3_4 
REMARK    3  A    between atoms: C8_9  and  O2_10 
REMARK    4  A    between atoms: O2_10  and  C9_11 
REMARK    5  A    between atoms: C17_21  and  C18_22 
REMARK    6  A    between atoms: C18_22  and  N1_23 
ROOT
ATOM      1  C9  <0> d   1       3.544   3.567  -0.012  0.00  0.00     0.156 A 
ATOM      2  C10 <0> d   1       2.325   4.143   0.002  0.00  0.00     0.087 A 
ATOM      3  O3  <0> d   1       1.189   3.433   0.009  0.00  0.00    -0.311 OA
ATOM      4  C11 <0> d   1       1.179   2.085   0.002  0.00  0.00     0.101 A 
ATOM      5  C12 <0> d   1       2.394   1.378  -0.013  0.00  0.00     0.052 A 
ATOM      6  C13 <0> d   1       3.650   2.147  -0.021  0.00  0.00     0.221 A 
ATOM      7  O4  <0> d   1       4.736   1.592  -0.033  0.00  0.00    -0.284 OA
ATOM      8  C14 <0> d   1       2.396  -0.018  -0.020  0.00  0.00     0.021 A 
ATOM      9  C15 <0> d   1       1.211  -0.697  -0.013  0.00  0.00     0.041 A 
ATOM     10  C16 <0> d   1       0.002  -0.004   0.002  0.00  0.00     0.118 A 
ATOM     11  C17 <0> d   1      -0.017   1.381   0.010  0.00  0.00     0.039 A 
ATOM     12  O5  <0> d   1      -1.168  -0.693   0.009  0.00  0.00    -0.191 OA
ATOM     13  C23 <0> d   1       2.237   5.647   0.011  0.00  0.00     0.080 C 
ENDROOT
BRANCH   1  14
ATOM     14  O2  <0> d   1       4.666   4.338  -0.018  0.00  0.00    -0.301 OA
BRANCH  14  15
ATOM     15  C8  <0> d   1       5.181   4.706  -1.221  0.00  0.00     0.109 A 
ATOM     16  C3  <0> d   1       6.327   5.495  -1.277  0.00  0.00     0.102 A 
ATOM     17  C4  <0> d   1       6.849   5.867  -2.506  0.00  0.00     0.039 A 
ATOM     18  C5  <0> d   1       6.231   5.455  -3.672  0.00  0.00     0.003 A 
ATOM     19  C6  <0> d   1       5.093   4.672  -3.616  0.00  0.00     0.003 A 
ATOM     20  C7  <0> d   1       4.570   4.293  -2.394  0.00  0.00     0.040 A 
BRANCH  16  21
ATOM     21  O1  <0> d   1       6.933   5.898  -0.129  0.00  0.00    -0.349 OA
BRANCH  21  22
ATOM     22  C2  <0> d   1       8.105   6.705  -0.263  0.00  0.00     0.171 C 
ATOM     23  C1  <0> d   1       8.643   7.059   1.125  0.00  0.00     0.034 C 
ENDBRANCH  21  22
ENDBRANCH  16  21
ENDBRANCH  14  15
ENDBRANCH   1  14
BRANCH  11  24
ATOM     24  C18 <0> d   1      -1.330   2.119   0.020  0.00  0.00     0.279 C 
BRANCH  24  25
ATOM     25  N1  <0> d   1      -1.750   2.352   1.408  0.00  0.00    -0.067 N 
ATOM     26  C22 <0> d   1      -2.904   3.276   1.465  0.00  0.00     0.235 C 
ATOM     27  C21 <0> d   1      -2.748   4.115   2.747  0.00  0.00     0.029 C 
ATOM     28  C20 <0> d   1      -1.426   3.632   3.387  0.00  0.00     0.029 C 
ATOM     29  C19 <0> d   1      -0.669   3.006   2.189  0.00  0.00     0.235 C 
ATOM     30  H25 <0> d   1      -2.006   1.362   1.813  0.00  0.00     0.280 HD
ENDBRANCH  24  25
ENDBRANCH  11  24
TORSDOF 6
