REMARK  4 active torsions:
REMARK  status: ('A' for Active; 'I' for Inactive)
REMARK    1  A    between atoms: C3_3  and  C16_20 
REMARK    2  A    between atoms: C9_10  and  C11_13 
REMARK    3  A    between atoms: C11_13  and  N1_14 
REMARK    4  A    between atoms: C19_23  and  O4_26 
ROOT
ATOM      1  C1  <0> d   1       2.174   5.670   0.013  0.00  0.00     0.077 C 
ATOM      2  C2  <0> d   1       2.295   4.168   0.003  0.00  0.00     0.065 A 
ATOM      3  C3  <0> d   1       3.534   3.613  -0.012  0.00  0.00     0.054 A 
ATOM      4  C4  <0> d   1       3.651   2.145  -0.022  0.00  0.00     0.198 A 
ATOM      5  O1  <0> d   1       4.737   1.591  -0.035  0.00  0.00    -0.286 OA
ATOM      6  C5  <0> d   1       2.393   1.378  -0.014  0.00  0.00     0.050 A 
ATOM      7  C6  <0> d   1       2.395  -0.017  -0.021  0.00  0.00     0.021 A 
ATOM      8  C7  <0> d   1       1.211  -0.697  -0.013  0.00  0.00     0.041 A 
ATOM      9  C8  <0> d   1       0.002  -0.004   0.002  0.00  0.00     0.118 A 
ATOM     10  C9  <0> d   1      -0.017   1.380   0.010  0.00  0.00     0.039 A 
ATOM     11  C10 <0> d   1       1.179   2.087   0.002  0.00  0.00     0.100 A 
ATOM     12  O2  <0> d   1       1.178   3.435   0.010  0.00  0.00    -0.313 OA
ATOM     13  O3  <0> d   1      -1.168  -0.693   0.010  0.00  0.00    -0.191 OA
ENDROOT
BRANCH   3  14
ATOM     14  C16 <0> d   1       4.745   4.469  -0.019  0.00  0.00    -0.019 A 
ATOM     15  C21 <0> d   1       5.599   4.461  -1.121  0.00  0.00     0.015 A 
ATOM     16  C20 <0> d   1       6.725   5.258  -1.125  0.00  0.00     0.037 A 
ATOM     17  C19 <0> d   1       7.008   6.068  -0.034  0.00  0.00     0.068 A 
ATOM     18  C18 <0> d   1       6.159   6.078   1.065  0.00  0.00     0.037 A 
ATOM     19  C17 <0> d   1       5.030   5.286   1.073  0.00  0.00     0.015 A 
BRANCH  17  20
ATOM     20  O4  <0> d   1       8.117   6.852  -0.041  0.00  0.00    -0.356 OA
ATOM     21  C22 <0> d   1       8.348   7.660   1.115  0.00  0.00     0.210 C 
ENDBRANCH  17  20
ENDBRANCH   3  14
BRANCH  10  22
ATOM     22  C11 <0> d   1      -1.331   2.118   0.020  0.00  0.00     0.279 C 
BRANCH  22  23
ATOM     23  N1  <0> d   1      -1.751   2.350   1.408  0.00  0.00    -0.067 N 
ATOM     24  C15 <0> d   1      -2.905   3.273   1.465  0.00  0.00     0.235 C 
ATOM     25  C14 <0> d   1      -2.750   4.112   2.747  0.00  0.00     0.029 C 
ATOM     26  C13 <0> d   1      -1.428   3.630   3.387  0.00  0.00     0.029 C 
ATOM     27  C12 <0> d   1      -0.670   3.005   2.189  0.00  0.00     0.235 C 
ATOM     28  H23 <0> d   1      -2.007   1.360   1.813  0.00  0.00     0.280 HD
ENDBRANCH  22  23
ENDBRANCH  10  22
TORSDOF 4
