REMARK  5 active torsions:
REMARK  status: ('A' for Active; 'I' for Inactive)
REMARK    1  A    between atoms: N2_5  and  C6_8 
REMARK    2  A    between atoms: C6_8  and  C7_9 
REMARK    3  A    between atoms: C8_10  and  O4_28 
REMARK    4  A    between atoms: C14_17  and  C16_20 
REMARK    5  A    between atoms: C19_23  and  O3_26 
ROOT
ATOM      1  C7  <0> d   1      -0.631   1.724   3.640  0.00  0.00     0.035 A 
ATOM      2  C8  <0> d   1      -1.744   1.203   4.279  0.00  0.00     0.076 A 
ATOM      3  C9  <0> d   1      -2.278   1.834   5.400  0.00  0.00     0.038 A 
ATOM      4  C10 <0> d   1      -1.710   2.978   5.883  0.00  0.00     0.021 A 
ATOM      5  C11 <0> d   1      -0.588   3.515   5.250  0.00  0.00     0.050 A 
ATOM      6  C12 <0> d   1      -0.038   2.883   4.121  0.00  0.00     0.100 A 
ATOM      7  O1  <0> d   1       1.049   3.400   3.514  0.00  0.00    -0.320 OA
ATOM      8  C13 <0> d   1       1.662   4.511   3.931  0.00  0.00     0.159 A 
ATOM      9  C14 <0> d   1       1.240   5.218   5.011  0.00  0.00     0.048 A 
ATOM     10  C15 <0> d   1       0.052   4.748   5.744  0.00  0.00     0.197 A 
ATOM     11  O2  <0> d   1      -0.373   5.342   6.720  0.00  0.00    -0.286 OA
ENDROOT
BRANCH   1  12
ATOM     12  C6  <0> d   1      -0.062   1.031   2.429  0.00  0.00     0.279 C 
BRANCH  12  13
ATOM     13  N2  <0> d   1      -0.701   1.560   1.216  0.00  0.00    -0.064 N 
ATOM     14  C3  <0> d   1      -0.013   1.086   0.008  0.00  0.00     0.265 C 
ATOM     15  C2  <0> d   1      -0.754   1.593  -1.231  0.00  0.00     0.299 C 
ATOM     16  N1  <0> d   1      -0.806   3.062  -1.200  0.00  0.00     0.087 N 
ATOM     17  C1  <0> d   1      -1.445   3.591  -2.413  0.00  0.00     0.310 C 
ATOM     18  C5  <0> d   1      -1.495   3.536   0.008  0.00  0.00     0.299 C 
ATOM     19  C4  <0> d   1      -0.754   3.029   1.247  0.00  0.00     0.265 C 
ATOM     20  H25 <0> d   1      -1.735   1.184   1.189  0.00  0.00     0.280 HD
ENDBRANCH  12  13
ENDBRANCH   1  12
BRANCH   2  21
ATOM     21  O4  <0> d   1      -2.319   0.067   3.809  0.00  0.00    -0.360 OA
ATOM     22  H24 <0> d   1      -3.203  -0.351   4.313  0.00  0.00     0.217 HD
ENDBRANCH   2  21
BRANCH   9  23
ATOM     23  C16 <0> d   1       1.953   6.447   5.436  0.00  0.00    -0.020 A 
ATOM     24  C21 <0> d   1       3.338   6.430   5.598  0.00  0.00     0.015 A 
ATOM     25  C20 <0> d   1       3.998   7.574   5.994  0.00  0.00     0.037 A 
ATOM     26  C19 <0> d   1       3.286   8.742   6.231  0.00  0.00     0.068 A 
ATOM     27  C18 <0> d   1       1.908   8.762   6.070  0.00  0.00     0.037 A 
ATOM     28  C17 <0> d   1       1.242   7.622   5.669  0.00  0.00     0.015 A 
BRANCH  26  29
ATOM     29  O3  <0> d   1       3.940   9.867   6.621  0.00  0.00    -0.356 OA
ATOM     30  C22 <0> d   1       3.146  11.034   6.847  0.00  0.00     0.210 C 
ENDBRANCH  26  29
ENDBRANCH   9  23
TORSDOF 5
