REMARK  9 active torsions:
REMARK  status: ('A' for Active; 'I' for Inactive)
REMARK    1  A    between atoms: C4_4  and  C7_7 
REMARK    2  A    between atoms: C9_12  and  C10_13 
REMARK    3  A    between atoms: C13_16  and  O2_20 
REMARK    4  A    between atoms: C15_18  and  O1_19 
REMARK    5  A    between atoms: O2_20  and  C16_21 
REMARK    6  A    between atoms: C16_21  and  C17_22 
REMARK    7  A    between atoms: C17_22  and  N3_23 
REMARK    8  A    between atoms: N4_26  and  C22_29 
REMARK    9  A    between atoms: C22_29  and  C23_30 
ROOT
ATOM      1  C10 <0> d   1       3.097  -2.288   1.769  0.00  0.00     0.026 A 
ATOM      2  C11 <0> d   1       3.336  -2.067   3.127  0.00  0.00     0.019 A 
ATOM      3  C12 <0> d   1       2.490  -2.606   4.072  0.00  0.00     0.038 A 
ATOM      4  C13 <0> d   1       1.398  -3.370   3.678  0.00  0.00     0.071 A 
ATOM      5  C14 <0> d   1       1.153  -3.595   2.331  0.00  0.00     0.074 A 
ATOM      6  C15 <0> d   1       1.992  -3.054   1.374  0.00  0.00     0.081 A 
ENDROOT
BRANCH   4   7
ATOM      7  O2  <0> d   1       0.569  -3.899   4.615  0.00  0.00    -0.349 OA
BRANCH   7   8
ATOM      8  C16 <0> d   1       0.880  -3.628   5.983  0.00  0.00     0.203 C 
BRANCH   8   9
ATOM      9  C17 <0> d   1      -0.158  -4.301   6.884  0.00  0.00     0.261 C 
BRANCH   9  10
ATOM     10  N3  <0> d   1      -0.056  -5.760   6.744  0.00  0.00    -0.066 N 
ATOM     11  C21 <0> d   1      -1.128  -6.402   7.515  0.00  0.00     0.265 C 
ATOM     12  C20 <0> d   1      -1.034  -7.920   7.354  0.00  0.00     0.300 C 
ATOM     13  N4  <0> d   1       0.278  -8.380   7.830  0.00  0.00     0.095 N 
ATOM     14  C19 <0> d   1       1.362  -7.727   7.083  0.00  0.00     0.300 C 
ATOM     15  C18 <0> d   1       1.249  -6.210   7.246  0.00  0.00     0.265 C 
ATOM     16  H31 <0> d   1      -0.146  -6.011   5.770  0.00  0.00     0.280 HD
BRANCH  13  17
ATOM     17  C22 <0> d   1       0.386  -9.843   7.744  0.00  0.00     0.311 C 
BRANCH  17  18
ATOM     18  C23 <0> d   1      -0.582 -10.476   8.710  0.00  0.00    -0.027 A 
ATOM     19  C28 <0> d   1      -1.867 -10.778   8.301  0.00  0.00     0.048 A 
ATOM     20  C27 <0> d   1      -2.757 -11.364   9.186  0.00  0.00     0.105 A 
ATOM     21  C26 <0> d   1      -2.356 -11.639  10.491  0.00  0.00     0.105 A 
ATOM     22  O3  <0> d   1      -4.055 -11.759   9.036  0.00  0.00    -0.323 OA
ATOM     23  C25 <0> d   1      -1.068 -11.328  10.896  0.00  0.00     0.040 A 
ATOM     24  O4  <0> d   1      -3.403 -12.205  11.159  0.00  0.00    -0.323 OA
ATOM     25  C24 <0> d   1      -0.184 -10.748  10.006  0.00  0.00     0.012 A 
ATOM     26  C29 <0> d   1      -4.316 -12.648  10.138  0.00  0.00     0.352 C 
ENDBRANCH  17  18
ENDBRANCH  13  17
ENDBRANCH   9  10
ENDBRANCH   8   9
ENDBRANCH   7   8
ENDBRANCH   4   7
BRANCH   6  27
ATOM     27  O1  <0> d   1       1.750  -3.268   0.055  0.00  0.00    -0.360 OA
ATOM     28  H11 <0> d   1       2.176  -4.061  -0.300  0.00  0.00     0.217 HD
ENDBRANCH   6  27
BRANCH   1  29
ATOM     29  C9  <0> d   1       4.002  -1.712   0.754  0.00  0.00     0.075 A 
ATOM     30  C7  <0> d   1       4.837  -2.417  -0.103  0.00  0.00     0.022 A 
ATOM     31  C8  <0> d   1       5.509  -1.473  -0.901  0.00  0.00     0.153 A 
ATOM     32  N1  <0> d   1       5.115  -0.278  -0.551  0.00  0.00    -0.186 NA
ATOM     33  N2  <0> d   1       4.177  -0.389   0.482  0.00  0.00    -0.277 N 
ATOM     34  H1  <0> d   1       3.728   0.348   0.924  0.00  0.00     0.189 HD
BRANCH  30  35
ATOM     35  C4  <0> d   1       4.988  -3.890  -0.169  0.00  0.00    -0.022 A 
ATOM     36  C3  <0> d   1       4.782  -4.561  -1.374  0.00  0.00     0.012 A 
ATOM     37  C2  <0> d   1       4.925  -5.933  -1.429  0.00  0.00     0.001 A 
ATOM     38  C1  <0> d   1       5.270  -6.642  -0.293  0.00  0.00     0.000 A 
ATOM     39  C6  <0> d   1       5.475  -5.981   0.905  0.00  0.00     0.001 A 
ATOM     40  C5  <0> d   1       5.336  -4.610   0.973  0.00  0.00     0.012 A 
ENDBRANCH  30  35
ENDBRANCH   1  29
TORSDOF 9
