REMARK  7 active torsions:
REMARK  status: ('A' for Active; 'I' for Inactive)
REMARK    1  A    between atoms: N1_5  and  C7_8 
REMARK    2  A    between atoms: C7_8  and  C8_9 
REMARK    3  A    between atoms: C8_9  and  O1_10 
REMARK    4  A    between atoms: O1_10  and  C9_11 
REMARK    5  A    between atoms: C12_14  and  C15_18 
REMARK    6  A    between atoms: C16_19  and  C18_24 
REMARK    7  A    between atoms: C21_27  and  O3_30 
ROOT
ATOM      1  C9  <0> d   1       2.853  -4.423   3.424  0.00  0.00     0.071 A 
ATOM      2  C10 <0> d   1       4.186  -4.787   3.283  0.00  0.00     0.038 A 
ATOM      3  C11 <0> d   1       4.934  -5.126   4.392  0.00  0.00     0.019 A 
ATOM      4  C12 <0> d   1       4.351  -5.102   5.658  0.00  0.00     0.032 A 
ATOM      5  C13 <0> d   1       3.009  -4.734   5.799  0.00  0.00     0.122 A 
ATOM      6  C14 <0> d   1       2.268  -4.391   4.681  0.00  0.00     0.077 A 
ATOM      7  O2  <0> d   1       2.436  -4.709   7.030  0.00  0.00    -0.191 OA
ENDROOT
BRANCH   4   8
ATOM      8  C15 <0> d   1       5.152  -5.465   6.851  0.00  0.00     0.102 A 
ATOM      9  C16 <0> d   1       5.989  -6.602   6.980  0.00  0.00     0.022 A 
ATOM     10  C17 <0> d   1       6.541  -6.566   8.226  0.00  0.00     0.124 A 
ATOM     11  N2  <0> d   1       6.077  -5.463   8.851  0.00  0.00    -0.288 N 
ATOM     12  H1  <0> d   1       6.303  -5.184   9.752  0.00  0.00     0.188 HD
ATOM     13  N3  <0> d   1       5.217  -4.787   7.976  0.00  0.00    -0.174 NA
BRANCH   9  14
ATOM     14  C18 <0> d   1       6.222  -7.643   5.948  0.00  0.00    -0.022 A 
ATOM     15  C23 <0> d   1       7.519  -7.936   5.533  0.00  0.00     0.015 A 
ATOM     16  C22 <0> d   1       7.733  -8.909   4.578  0.00  0.00     0.037 A 
ATOM     17  C21 <0> d   1       6.657  -9.585   4.021  0.00  0.00     0.068 A 
ATOM     18  C20 <0> d   1       5.363  -9.291   4.429  0.00  0.00     0.037 A 
ATOM     19  C19 <0> d   1       5.143  -8.324   5.388  0.00  0.00     0.015 A 
BRANCH  17  20
ATOM     20  O3  <0> d   1       6.870 -10.539   3.076  0.00  0.00    -0.356 OA
ATOM     21  C24 <0> d   1       8.226 -10.791   2.704  0.00  0.00     0.210 C 
ENDBRANCH  17  20
ENDBRANCH   9  14
ENDBRANCH   4   8
BRANCH   1  22
ATOM     22  O1  <0> d   1       2.122  -4.091   2.328  0.00  0.00    -0.349 OA
BRANCH  22  23
ATOM     23  C8  <0> d   1       2.787  -4.145   1.064  0.00  0.00     0.203 C 
BRANCH  23  24
ATOM     24  C7  <0> d   1       1.811  -3.742  -0.043  0.00  0.00     0.261 C 
BRANCH  24  25
ATOM     25  N1  <0> d   1       1.400  -2.345   0.151  0.00  0.00    -0.069 N 
ATOM     26  C4  <0> d   1       2.559  -1.465  -0.040  0.00  0.00     0.235 C 
ATOM     27  C3  <0> d   1       2.156  -0.015   0.241  0.00  0.00     0.032 C 
ATOM     28  C2  <0> d   1       1.038   0.393  -0.722  0.00  0.00    -0.015 C 
ATOM     29  C1  <0> d   1       0.575   1.814  -0.395  0.00  0.00     0.010 C 
ATOM     30  C6  <0> d   1      -0.137  -0.577  -0.567  0.00  0.00     0.032 C 
ATOM     31  C5  <0> d   1       0.352  -2.005  -0.818  0.00  0.00     0.235 C 
ATOM     32  H29 <0> d   1       1.042  -2.229   1.087  0.00  0.00     0.280 HD
ENDBRANCH  24  25
ENDBRANCH  23  24
ENDBRANCH  22  23
ENDBRANCH   1  22
TORSDOF 7
