REMARK  9 active torsions:
REMARK  status: ('A' for Active; 'I' for Inactive)
REMARK    1  A    between atoms: O1_2  and  C2_3 
REMARK    2  A    between atoms: C6_7  and  C9_11 
REMARK    3  A    between atoms: C7_8  and  O2_9 
REMARK    4  A    between atoms: C15_18  and  O6_32 
REMARK    5  A    between atoms: C16_19  and  C18_22 
REMARK    6  A    between atoms: C18_22  and  N1_23 
REMARK    7  A    between atoms: N2_26  and  C23_29 
REMARK    8  A    between atoms: C23_29  and  C24_30 
REMARK    9  A    between atoms: C24_30  and  O5_31 
ROOT
ATOM      1  C9  <0> d   1       4.472   2.624   0.657  0.00  0.00     0.055 C 
ATOM      2  C10 <0> d   1       4.239   3.939   0.412  0.00  0.00     0.128 A 
ATOM      3  C11 <0> d   1       5.258   4.986   0.253  0.00  0.00     0.218 A 
ATOM      4  O3  <0> d   1       6.470   4.863   0.310  0.00  0.00    -0.284 OA
ATOM      5  C12 <0> d   1       4.487   6.218   0.006  0.00  0.00     0.051 A 
ATOM      6  C13 <0> d   1       4.855   7.544  -0.225  0.00  0.00     0.021 A 
ATOM      7  C14 <0> d   1       3.893   8.494  -0.419  0.00  0.00     0.038 A 
ATOM      8  C15 <0> d   1       2.546   8.141  -0.388  0.00  0.00     0.076 A 
ATOM      9  C16 <0> d   1       2.166   6.829  -0.160  0.00  0.00     0.038 A 
ATOM     10  C17 <0> d   1       3.133   5.851   0.040  0.00  0.00     0.101 A 
ATOM     11  O4  <0> d   1       3.026   4.525   0.277  0.00  0.00    -0.305 OA
ENDROOT
BRANCH   9  12
ATOM     12  C18 <0> d   1       0.705   6.462  -0.129  0.00  0.00     0.317 C 
BRANCH  12  13
ATOM     13  N1  <0> d   1       0.198   6.589   1.244  0.00  0.00     0.096 N 
ATOM     14  C22 <0> d   1      -1.267   6.471   1.277  0.00  0.00     0.300 C 
ATOM     15  C21 <0> d   1      -1.761   6.688   2.709  0.00  0.00     0.265 C 
ATOM     16  N2  <0> d   1      -1.136   5.697   3.596  0.00  0.00    -0.066 N 
ATOM     17  C20 <0> d   1       0.329   5.815   3.563  0.00  0.00     0.265 C 
ATOM     18  H29 <0> d   1      -1.405   4.695   3.229  0.00  0.00     0.280 HD
ATOM     19  C19 <0> d   1       0.823   5.598   2.131  0.00  0.00     0.300 C 
BRANCH  16  20
ATOM     20  C23 <0> d   1      -1.643   5.824   4.969  0.00  0.00     0.260 C 
BRANCH  20  21
ATOM     21  C24 <0> d   1      -0.976   7.021   5.650  0.00  0.00     0.192 C 
BRANCH  21  22
ATOM     22  O5  <0> d   1      -1.369   8.225   4.989  0.00  0.00    -0.399 OA
ATOM     23  H27 <0> d   1      -0.987   9.195   5.341  0.00  0.00     0.209 HD
ENDBRANCH  21  22
ENDBRANCH  20  21
ENDBRANCH  16  20
ENDBRANCH  12  13
ENDBRANCH   9  12
BRANCH   8  24
ATOM     24  O6  <0> d   1       1.597   9.092  -0.582  0.00  0.00    -0.360 OA
ATOM     25  H28 <0> d   1       0.531   8.819  -0.559  0.00  0.00     0.217 HD
ENDBRANCH   8  24
BRANCH   1  26
ATOM     26  C6  <0> d   1       3.357   1.670   0.661  0.00  0.00     0.003 A 
ATOM     27  C5  <0> d   1       2.037   2.129   0.761  0.00  0.00     0.014 A 
ATOM     28  C4  <0> d   1       0.995   1.229   0.765  0.00  0.00     0.004 A 
ATOM     29  C3  <0> d   1       1.242  -0.131   0.670  0.00  0.00     0.040 A 
ATOM     30  C2  <0> d   1       2.542  -0.601   0.570  0.00  0.00     0.102 A 
ATOM     31  C7  <0> d   1       3.607   0.292   0.565  0.00  0.00     0.111 A 
BRANCH  30  32
ATOM     32  O1  <0> d   1       2.775  -1.938   0.477  0.00  0.00    -0.353 OA
ATOM     33  C1  <0> d   1       1.634  -2.798   0.489  0.00  0.00     0.210 C 
ENDBRANCH  30  32
BRANCH  31  34
ATOM     34  O2  <0> d   1       4.881  -0.166   0.467  0.00  0.00    -0.352 OA
ATOM     35  C8  <0> d   1       5.420  -0.309  -0.848  0.00  0.00     0.210 C 
ENDBRANCH  31  34
ENDBRANCH   1  26
TORSDOF 9
