REMARK  4 active torsions:
REMARK  status: ('A' for Active; 'I' for Inactive)
REMARK    1  A    between atoms: C3_3  and  C17_22 
REMARK    2  A    between atoms: C8_9  and  O3_21 
REMARK    3  A    between atoms: C9_10  and  C11_13 
REMARK    4  A    between atoms: C11_13  and  N1_14 
ROOT
ATOM      1  C1  <0> d   1       1.229  -2.147  -0.021  0.00  0.00     0.078 C 
ATOM      2  C2  <0> d   1       1.206  -0.641  -0.013  0.00  0.00     0.067 A 
ATOM      3  C3  <0> d   1       0.002  -0.004   0.002  0.00  0.00     0.080 A 
ATOM      4  C4  <0> d   1      -0.018   1.470   0.010  0.00  0.00     0.200 A 
ATOM      5  O1  <0> d   1      -1.064   2.095   0.018  0.00  0.00    -0.286 OA
ATOM      6  C5  <0> d   1       1.290   2.152   0.001  0.00  0.00     0.050 A 
ATOM      7  C6  <0> d   1       1.379   3.544   0.007  0.00  0.00     0.021 A 
ATOM      8  C7  <0> d   1       2.606   4.144  -0.002  0.00  0.00     0.038 A 
ATOM      9  C8  <0> d   1       3.766   3.373  -0.018  0.00  0.00     0.076 A 
ATOM     10  C9  <0> d   1       3.693   1.990  -0.024  0.00  0.00     0.035 A 
ATOM     11  C10 <0> d   1       2.454   1.364  -0.015  0.00  0.00     0.100 A 
ATOM     12  O2  <0> d   1       2.365   0.019  -0.021  0.00  0.00    -0.313 OA
ENDROOT
BRANCH   3  13
ATOM     13  C17 <0> d   1      -1.257  -0.774   0.010  0.00  0.00     0.115 A 
ATOM     14  S1  <0> d   1      -2.940  -0.172   0.030  0.00  0.00    -0.067 SA
ATOM     15  C23 <0> d   1      -3.743  -1.757   0.029  0.00  0.00     0.035 A 
ATOM     16  C18 <0> d   1      -2.647  -2.651   0.013  0.00  0.00     0.075 A 
ATOM     17  C22 <0> d   1      -5.048  -2.186   0.039  0.00  0.00     0.021 A 
ATOM     18  N3  <0> d   1      -1.427  -2.079  -0.001  0.00  0.00    -0.239 NA
ATOM     19  C19 <0> d   1      -2.967  -4.030   0.008  0.00  0.00     0.033 A 
ATOM     20  C20 <0> d   1      -4.262  -4.445   0.018  0.00  0.00     0.002 A 
ATOM     21  C21 <0> d   1      -5.316  -3.543   0.033  0.00  0.00     0.002 A 
ENDBRANCH   3  13
BRANCH  10  22
ATOM     22  C11 <0> d   1       4.955   1.167  -0.041  0.00  0.00     0.279 C 
BRANCH  22  23
ATOM     23  N1  <0> d   1       5.351   0.907  -1.432  0.00  0.00    -0.064 N 
ATOM     24  C15 <0> d   1       6.695   0.315  -1.495  0.00  0.00     0.265 C 
ATOM     25  C14 <0> d   1       7.101   0.133  -2.959  0.00  0.00     0.299 C 
ATOM     26  N2  <0> d   1       6.118  -0.725  -3.635  0.00  0.00     0.087 N 
ATOM     27  C13 <0> d   1       4.774  -0.133  -3.572  0.00  0.00     0.299 C 
ATOM     28  C16 <0> d   1       6.514  -0.985  -5.025  0.00  0.00     0.310 C 
ATOM     29  C12 <0> d   1       4.368   0.048  -2.107  0.00  0.00     0.265 C 
ATOM     30  H24 <0> d   1       5.380   1.871  -1.960  0.00  0.00     0.280 HD
ENDBRANCH  22  23
ENDBRANCH  10  22
BRANCH   9  31
ATOM     31  O3  <0> d   1       4.979   3.982  -0.026  0.00  0.00    -0.360 OA
ATOM     32  H19 <0> d   1       5.898   3.377  -0.039  0.00  0.00     0.217 HD
ENDBRANCH   9  31
TORSDOF 4
