REMARK  7 active torsions:
REMARK  status: ('A' for Active; 'I' for Inactive)
REMARK    1  A    between atoms: C9_10  and  C10_11 
REMARK    2  A    between atoms: C12_13  and  O3_19 
REMARK    3  A    between atoms: C15_16  and  O2_17 
REMARK    4  A    between atoms: N1_24  and  C21_27 
REMARK    5  A    between atoms: C21_27  and  C22_28 
REMARK    6  A    between atoms: C22_28  and  C23_29 
REMARK    7  A    between atoms: C23_29  and  N2_30 
ROOT
ATOM      1  C1  <0> d   1       0.982   1.398   0.041  0.00  0.00     0.054 C 
ATOM      2  C2  <0> d   1       0.924  -0.108   0.056  0.00  0.00     0.007 A 
ATOM      3  C3  <0> d   1       1.111  -0.819  -1.122  0.00  0.00     0.087 A 
ATOM      4  C4  <0> d   1       1.061  -2.209  -1.120  0.00  0.00     0.005 A 
ATOM      5  C5  <0> d   1       0.823  -2.885   0.046  0.00  0.00     0.030 A 
ATOM      6  C6  <0> d   1       0.633  -2.182   1.235  0.00  0.00     0.052 A 
ATOM      7  C7  <0> d   1       0.689  -0.779   1.248  0.00  0.00     0.099 A 
ATOM      8  O1  <0> d   1       0.486  -0.327   2.504  0.00  0.00    -0.305 OA
ATOM      9  C8  <0> d   1       0.292  -1.341   3.379  0.00  0.00     0.128 A 
ATOM     10  C9  <0> d   1       0.060  -1.218   4.712  0.00  0.00     0.055 C 
ATOM     11  C18 <0> d   1       0.364  -2.600   2.623  0.00  0.00     0.218 A 
ATOM     12  O4  <0> d   1       0.242  -3.735   3.050  0.00  0.00    -0.284 OA
ATOM     13  C19 <0> d   1       1.270  -2.990  -2.393  0.00  0.00     0.316 C 
ATOM     14  N1  <0> d   1       1.094  -2.101  -3.550  0.00  0.00     0.116 N 
ATOM     15  C20 <0> d   1       1.885  -0.873  -3.371  0.00  0.00     0.447 C 
ATOM     16  O5  <0> d   1       1.341  -0.135  -2.274  0.00  0.00    -0.320 OA
ENDROOT
BRANCH  10  17
ATOM     17  C10 <0> d   1       0.161   0.096   5.355  0.00  0.00     0.003 A 
ATOM     18  C15 <0> d   1       0.272   0.192   6.752  0.00  0.00     0.078 A 
ATOM     19  C14 <0> d   1       0.372   1.438   7.351  0.00  0.00     0.040 A 
ATOM     20  C13 <0> d   1       0.352   2.583   6.579  0.00  0.00     0.039 A 
ATOM     21  C12 <0> d   1       0.237   2.497   5.196  0.00  0.00     0.069 A 
ATOM     22  C11 <0> d   1       0.142   1.263   4.581  0.00  0.00     0.051 A 
BRANCH  18  23
ATOM     23  O2  <0> d   1       0.287  -0.932   7.513  0.00  0.00    -0.355 OA
ATOM     24  C16 <0> d   1       0.402  -0.757   8.927  0.00  0.00     0.210 C 
ENDBRANCH  18  23
BRANCH  21  25
ATOM     25  O3  <0> d   1       0.219   3.631   4.445  0.00  0.00    -0.356 OA
ATOM     26  C17 <0> d   1       0.321   4.873   5.144  0.00  0.00     0.210 C 
ENDBRANCH  21  25
ENDBRANCH  10  17
BRANCH  14  27
ATOM     27  C21 <0> d   1       1.458  -2.784  -4.798  0.00  0.00     0.277 C 
BRANCH  27  28
ATOM     28  C22 <0> d   1       1.031  -1.927  -5.992  0.00  0.00     0.058 C 
BRANCH  28  29
ATOM     29  C23 <0> d   1       1.410  -2.639  -7.292  0.00  0.00     0.236 C 
BRANCH  29  30
ATOM     30  N2  <0> d   1       1.000  -1.816  -8.438  0.00  0.00    -0.067 N 
ATOM     31  C27 <0> d   1       1.470  -2.441  -9.682  0.00  0.00     0.261 C 
ATOM     32  C26 <0> d   1       1.042  -1.582 -10.875  0.00  0.00     0.195 C 
ATOM     33  O6  <0> d   1      -0.381  -1.436 -10.864  0.00  0.00    -0.388 OA
ATOM     34  C25 <0> d   1      -0.889  -0.853  -9.661  0.00  0.00     0.195 C 
ATOM     35  C24 <0> d   1      -0.465  -1.711  -8.466  0.00  0.00     0.261 C 
ATOM     36  H33 <0> d   1       1.403  -0.895  -8.351  0.00  0.00     0.280 HD
ENDBRANCH  29  30
ENDBRANCH  28  29
ENDBRANCH  27  28
ENDBRANCH  14  27
TORSDOF 7
