REMARK  6 active torsions:
REMARK  status: ('A' for Active; 'I' for Inactive)
REMARK    1  A    between atoms: C2_2  and  N1_3 
REMARK    2  A    between atoms: N2_6  and  C7_9 
REMARK    3  A    between atoms: C7_9  and  C8_10 
REMARK    4  A    between atoms: C9_11  and  O4_30 
REMARK    5  A    between atoms: C15_19  and  C18_22 
REMARK    6  A    between atoms: C21_25  and  O3_28 
ROOT
ATOM      1  C8  <0> d   1       3.317  -3.984  -3.871  0.00  0.00     0.038 A 
ATOM      2  C9  <0> d   1       4.367  -4.668  -3.280  0.00  0.00     0.076 A 
ATOM      3  C10 <0> d   1       4.391  -6.061  -3.278  0.00  0.00     0.038 A 
ATOM      4  C11 <0> d   1       3.386  -6.771  -3.868  0.00  0.00     0.017 A 
ATOM      5  C12 <0> d   1       2.327  -6.097  -4.492  0.00  0.00     0.006 A 
ATOM      6  C13 <0> d   1       2.283  -4.690  -4.464  0.00  0.00     0.101 A 
ATOM      7  O1  <0> d   1       1.225  -4.035  -5.002  0.00  0.00    -0.273 OA
ATOM      8  C14 <0> d   1       0.560  -4.666  -5.997  0.00  0.00     0.300 C 
ATOM      9  O2  <0> d   1       0.131  -4.051  -6.955  0.00  0.00    -0.259 OA
ATOM     10  C15 <0> d   1       0.376  -6.122  -5.883  0.00  0.00     0.057 C 
ATOM     11  C16 <0> d   1       1.292  -6.821  -5.139  0.00  0.00    -0.032 C 
ATOM     12  C17 <0> d   1       1.192  -8.318  -5.001  0.00  0.00     0.050 C 
ENDROOT
BRANCH   1  13
ATOM     13  C7  <0> d   1       3.296  -2.477  -3.863  0.00  0.00     0.317 C 
BRANCH  13  14
ATOM     14  N2  <0> d   1       2.609  -2.003  -2.654  0.00  0.00     0.096 N 
ATOM     15  C4  <0> d   1       2.774  -0.552  -2.489  0.00  0.00     0.303 C 
ATOM     16  C3  <0> d   1       2.113  -0.112  -1.180  0.00  0.00     0.302 C 
ATOM     17  N1  <0> d   1       0.690  -0.478  -1.207  0.00  0.00     0.091 N 
ATOM     18  C6  <0> d   1       0.525  -1.929  -1.372  0.00  0.00     0.302 C 
ATOM     19  C5  <0> d   1       1.186  -2.369  -2.680  0.00  0.00     0.303 C 
BRANCH  17  20
ATOM     20  C2  <0> d   1       0.002  -0.004   0.002  0.00  0.00     0.268 C 
ATOM     21  C1  <0> d   1      -0.019   1.526   0.010  0.00  0.00     0.037 C 
ENDBRANCH  17  20
ENDBRANCH  13  14
ENDBRANCH   1  13
BRANCH   2  22
ATOM     22  O4  <0> d   1       5.381  -3.976  -2.700  0.00  0.00    -0.360 OA
ATOM     23  H28 <0> d   1       5.239  -3.782  -1.763  0.00  0.00     0.217 HD
ENDBRANCH   2  22
BRANCH  10  24
ATOM     24  C18 <0> d   1      -0.752  -6.808  -6.556  0.00  0.00    -0.019 A 
ATOM     25  C23 <0> d   1      -2.065  -6.537  -6.171  0.00  0.00     0.015 A 
ATOM     26  C22 <0> d   1      -3.113  -7.172  -6.803  0.00  0.00     0.037 A 
ATOM     27  C21 <0> d   1      -2.862  -8.091  -7.814  0.00  0.00     0.068 A 
ATOM     28  C20 <0> d   1      -1.556  -8.368  -8.195  0.00  0.00     0.037 A 
ATOM     29  C19 <0> d   1      -0.504  -7.731  -7.571  0.00  0.00     0.015 A 
BRANCH  27  30
ATOM     30  O3  <0> d   1      -3.896  -8.719  -8.431  0.00  0.00    -0.356 OA
ATOM     31  C24 <0> d   1      -5.214  -8.387  -7.989  0.00  0.00     0.210 C 
ENDBRANCH  27  30
ENDBRANCH  10  24
TORSDOF 6
