REMARK  6 active torsions:
REMARK  status: ('A' for Active; 'I' for Inactive)
REMARK    1  A    between atoms: N1_4  and  C7_9 
REMARK    2  A    between atoms: C7_9  and  C8_10 
REMARK    3  A    between atoms: C8_10  and  O2_11 
REMARK    4  A    between atoms: O2_11  and  C9_12 
REMARK    5  A    between atoms: C12_15  and  C15_19 
REMARK    6  A    between atoms: C16_20  and  C18_25 
ROOT
ATOM      1  C9  <0> d   1      -2.072  -6.104   0.850  0.00  0.00     0.071 A 
ATOM      2  C10 <0> d   1      -2.276  -6.711  -0.383  0.00  0.00     0.038 A 
ATOM      3  C11 <0> d   1      -2.136  -8.076  -0.515  0.00  0.00     0.019 A 
ATOM      4  C12 <0> d   1      -1.788  -8.851   0.590  0.00  0.00     0.032 A 
ATOM      5  C13 <0> d   1      -1.582  -8.239   1.831  0.00  0.00     0.122 A 
ATOM      6  C14 <0> d   1      -1.719  -6.867   1.953  0.00  0.00     0.077 A 
ATOM      7  O3  <0> d   1      -1.243  -8.989   2.912  0.00  0.00    -0.191 OA
ENDROOT
BRANCH   4   8
ATOM      8  C15 <0> d   1      -1.638 -10.319   0.451  0.00  0.00     0.102 A 
ATOM      9  C16 <0> d   1      -2.558 -11.197  -0.176  0.00  0.00     0.022 A 
ATOM     10  C17 <0> d   1      -2.045 -12.457  -0.090  0.00  0.00     0.124 A 
ATOM     11  N2  <0> d   1      -0.864 -12.379   0.557  0.00  0.00    -0.288 N 
ATOM     12  H3  <0> d   1      -0.278 -13.125   0.760  0.00  0.00     0.188 HD
ATOM     13  N3  <0> d   1      -0.624 -11.038   0.881  0.00  0.00    -0.174 NA
BRANCH   9  14
ATOM     14  C18 <0> d   1      -3.844 -10.815  -0.809  0.00  0.00    -0.022 A 
ATOM     15  C23 <0> d   1      -4.112 -11.186  -2.125  0.00  0.00     0.012 A 
ATOM     16  C22 <0> d   1      -5.313 -10.833  -2.707  0.00  0.00     0.001 A 
ATOM     17  C21 <0> d   1      -6.244 -10.102  -1.990  0.00  0.00     0.000 A 
ATOM     18  C20 <0> d   1      -5.980  -9.727  -0.686  0.00  0.00     0.001 A 
ATOM     19  C19 <0> d   1      -4.785 -10.079  -0.092  0.00  0.00     0.012 A 
ENDBRANCH   9  14
ENDBRANCH   4   8
BRANCH   1  20
ATOM     20  O2  <0> d   1      -2.211  -4.758   0.974  0.00  0.00    -0.349 OA
BRANCH  20  21
ATOM     21  C8  <0> d   1      -2.576  -4.032  -0.203  0.00  0.00     0.206 C 
BRANCH  21  22
ATOM     22  C7  <0> d   1      -2.685  -2.543   0.130  0.00  0.00     0.299 C 
BRANCH  22  23
ATOM     23  N1  <0> d   1      -1.367  -2.034   0.534  0.00  0.00     0.095 N 
ATOM     24  C3  <0> d   1      -0.494  -1.849  -0.634  0.00  0.00     0.303 C 
ATOM     25  C2  <0> d   1       0.884  -1.375  -0.164  0.00  0.00     0.146 C 
ATOM     26  C1  <0> d   1       1.773  -1.104  -1.379  0.00  0.00     0.041 C 
ATOM     27  O1  <0> d   1       0.736  -0.173   0.598  0.00  0.00    -0.378 OA
ATOM     28  C5  <0> d   1      -0.109  -0.318   1.742  0.00  0.00     0.146 C 
ATOM     29  C4  <0> d   1      -1.497  -0.780   1.292  0.00  0.00     0.303 C 
ATOM     30  C6  <0> d   1       0.492  -1.355   2.693  0.00  0.00     0.041 C 
ENDBRANCH  22  23
ENDBRANCH  21  22
ENDBRANCH  20  21
ENDBRANCH   1  20
TORSDOF 6
