REMARK  10 active torsions:
REMARK  status: ('A' for Active; 'I' for Inactive)
REMARK    1  A    between atoms: C4_4  and  O6_32 
REMARK    2  A    between atoms: C5_5  and  C19_22 
REMARK    3  A    between atoms: C10_11  and  C11_12 
REMARK    4  A    between atoms: C19_22  and  N1_23 
REMARK    5  A    between atoms: N1_23  and  C20_24 
REMARK    6  A    between atoms: N1_23  and  C23_28 
REMARK    7  A    between atoms: C20_24  and  C21_25 
REMARK    8  A    between atoms: C21_25  and  O4_26 
REMARK    9  A    between atoms: C23_28  and  C24_29 
REMARK   10  A    between atoms: C24_29  and  O5_30 
ROOT
ATOM      1  C1  <0> d   1       4.254   0.159  -1.242  0.00  0.00     0.049 C 
ATOM      2  C2  <0> d   1       3.224   1.223  -0.962  0.00  0.00    -0.042 A 
ATOM      3  C3  <0> d   1       3.614   2.515  -0.751  0.00  0.00     0.045 A 
ATOM      4  C4  <0> d   1       2.664   3.499  -0.493  0.00  0.00     0.076 A 
ATOM      5  C5  <0> d   1       1.316   3.183  -0.445  0.00  0.00     0.036 A 
ATOM      6  C6  <0> d   1       0.902   1.873  -0.656  0.00  0.00     0.101 A 
ATOM      7  C7  <0> d   1       1.870   0.889  -0.916  0.00  0.00     0.057 A 
ATOM      8  C8  <0> d   1       1.136  -0.377  -1.093  0.00  0.00     0.219 A 
ATOM      9  O1  <0> d   1       1.598  -1.480  -1.335  0.00  0.00    -0.284 OA
ATOM     10  C9  <0> d   1      -0.275  -0.014  -0.914  0.00  0.00     0.129 A 
ATOM     11  C10 <0> d   1      -1.339  -0.862  -0.988  0.00  0.00     0.078 C 
ATOM     12  O3  <0> d   1      -0.328   1.315  -0.662  0.00  0.00    -0.305 OA
ENDROOT
BRANCH   5  13
ATOM     13  C19 <0> d   1       0.299   4.258  -0.164  0.00  0.00     0.279 C 
BRANCH  13  14
ATOM     14  N1  <0> d   1       0.267   4.537   1.279  0.00  0.00    -0.063 N 
ATOM     15  H27 <0> d   1       1.305   4.632   1.628  0.00  0.00     0.280 HD
BRANCH  14  16
ATOM     16  C20 <0> d   1      -0.421   5.805   1.555  0.00  0.00     0.261 C 
BRANCH  16  17
ATOM     17  C21 <0> d   1      -0.220   6.185   3.023  0.00  0.00     0.194 C 
BRANCH  17  18
ATOM     18  O4  <0> d   1       1.165   6.445   3.262  0.00  0.00    -0.394 OA
ATOM     19  C22 <0> d   1       1.463   6.811   4.611  0.00  0.00     0.201 C 
ENDBRANCH  17  18
ENDBRANCH  16  17
ENDBRANCH  14  16
BRANCH  14  20
ATOM     20  C23 <0> d   1      -0.357   3.429   2.015  0.00  0.00     0.261 C 
BRANCH  20  21
ATOM     21  C24 <0> d   1       0.706   2.383   2.358  0.00  0.00     0.194 C 
BRANCH  21  22
ATOM     22  O5  <0> d   1       1.646   2.942   3.277  0.00  0.00    -0.394 OA
ATOM     23  C25 <0> d   1       2.686   2.043   3.665  0.00  0.00     0.201 C 
ENDBRANCH  21  22
ENDBRANCH  20  21
ENDBRANCH  14  20
ENDBRANCH  13  14
ENDBRANCH   5  13
BRANCH   4  24
ATOM     24  O6  <0> d   1       3.062   4.781  -0.286  0.00  0.00    -0.360 OA
ATOM     25  H28 <0> d   1       2.315   5.562  -0.082  0.00  0.00     0.217 HD
ENDBRANCH   4  24
BRANCH  11  26
ATOM     26  C11 <0> d   1      -2.651  -0.369  -0.791  0.00  0.00     0.079 A 
ATOM     27  O2  <0> d   1      -2.971   0.917  -0.527  0.00  0.00    -0.310 OA
ATOM     28  C18 <0> d   1      -4.308   1.039  -0.398  0.00  0.00     0.086 A 
ATOM     29  C13 <0> d   1      -4.872  -0.236  -0.590  0.00  0.00     0.000 A 
ATOM     30  C17 <0> d   1      -5.142   2.118  -0.130  0.00  0.00     0.038 A 
ATOM     31  C12 <0> d   1      -3.791  -1.116  -0.846  0.00  0.00     0.051 A 
ATOM     32  C14 <0> d   1      -6.259  -0.405  -0.511  0.00  0.00     0.014 A 
ATOM     33  C15 <0> d   1      -7.059   0.671  -0.247  0.00  0.00     0.001 A 
ATOM     34  C16 <0> d   1      -6.506   1.930  -0.057  0.00  0.00     0.003 A 
ENDBRANCH  11  26
TORSDOF 10
