REMARK  4 active torsions:
REMARK  status: ('A' for Active; 'I' for Inactive)
REMARK    1  A    between atoms: N2_5  and  C6_8 
REMARK    2  A    between atoms: C6_8  and  C7_9 
REMARK    3  A    between atoms: C8_10  and  O3_30 
REMARK    4  A    between atoms: C14_17  and  C15_18 
ROOT
ATOM      1  C7  <0> d   1       4.393  -4.259  -0.062  0.00  0.00     0.038 A 
ATOM      2  C8  <0> d   1       5.516  -5.071  -0.077  0.00  0.00     0.076 A 
ATOM      3  C9  <0> d   1       6.792  -4.513  -0.085  0.00  0.00     0.038 A 
ATOM      4  C10 <0> d   1       6.950  -3.156  -0.079  0.00  0.00     0.021 A 
ATOM      5  C11 <0> d   1       5.829  -2.327  -0.064  0.00  0.00     0.051 A 
ATOM      6  C12 <0> d   1       4.537  -2.879  -0.056  0.00  0.00     0.101 A 
ATOM      7  O1  <0> d   1       3.635  -1.874  -0.042  0.00  0.00    -0.305 OA
ATOM      8  C13 <0> d   1       4.242  -0.663  -0.041  0.00  0.00     0.128 A 
ATOM      9  C14 <0> d   1       3.610   0.544  -0.029  0.00  0.00     0.055 C 
ATOM     10  C23 <0> d   1       5.648  -0.864  -0.060  0.00  0.00     0.218 A 
ATOM     11  O2  <0> d   1       6.518  -0.010  -0.069  0.00  0.00    -0.284 OA
ENDROOT
BRANCH   9  12
ATOM     12  C15 <0> d   1       2.150   0.605  -0.015  0.00  0.00    -0.005 A 
ATOM     13  C18 <0> d   1       1.315   1.821  -0.001  0.00  0.00     0.002 A 
ATOM     14  C17 <0> d   1      -0.017   1.376   0.010  0.00  0.00     0.043 A 
ATOM     15  C19 <0> d   1       1.596   3.184   0.005  0.00  0.00     0.014 A 
ATOM     16  N3  <0> d   1       0.002  -0.004   0.002  0.00  0.00    -0.364 N 
ATOM     17  C22 <0> d   1      -1.047   2.310   0.030  0.00  0.00     0.030 A 
ATOM     18  C16 <0> d   1       1.278  -0.463  -0.013  0.00  0.00     0.100 A 
ATOM     19  H1  <0> d   1      -0.838  -0.715   0.006  0.00  0.00     0.165 HD
ATOM     20  C21 <0> d   1      -0.755   3.657   0.030  0.00  0.00     0.002 A 
ATOM     21  C20 <0> d   1       0.561   4.095   0.020  0.00  0.00     0.001 A 
ENDBRANCH   9  12
BRANCH   1  22
ATOM     22  C6  <0> d   1       3.018  -4.875  -0.054  0.00  0.00     0.317 C 
BRANCH  22  23
ATOM     23  N2  <0> d   1       2.559  -5.067  -1.436  0.00  0.00     0.096 N 
ATOM     24  C3  <0> d   1       1.333  -5.876  -1.477  0.00  0.00     0.300 C 
ATOM     25  C2  <0> d   1       0.933  -6.120  -2.934  0.00  0.00     0.264 C 
ATOM     26  N1  <0> d   1       0.731  -4.829  -3.606  0.00  0.00    -0.072 N 
ATOM     27  C1  <0> d   1       0.272  -5.021  -4.988  0.00  0.00     0.269 C 
ATOM     28  C5  <0> d   1       1.957  -4.020  -3.566  0.00  0.00     0.264 C 
ATOM     29  H24 <0> d   1      -0.055  -4.283  -3.063  0.00  0.00     0.279 HD
ATOM     30  C4  <0> d   1       2.357  -3.776  -2.108  0.00  0.00     0.300 C 
ENDBRANCH  22  23
ENDBRANCH   1  22
BRANCH   2  31
ATOM     31  O3  <0> d   1       5.372  -6.420  -0.084  0.00  0.00    -0.360 OA
ATOM     32  H23 <0> d   1       6.260  -7.069  -0.095  0.00  0.00     0.217 HD
ENDBRANCH   2  31
TORSDOF 4
