REMARK  6 active torsions:
REMARK  status: ('A' for Active; 'I' for Inactive)
REMARK    1  A    between atoms: C2_2  and  N1_3 
REMARK    2  A    between atoms: N2_6  and  C7_9 
REMARK    3  A    between atoms: C7_9  and  C8_10 
REMARK    4  A    between atoms: C9_11  and  O3_29 
REMARK    5  A    between atoms: C15_18  and  C16_19 
REMARK    6  A    between atoms: C17_20  and  C18_21 
ROOT
ATOM      1  C8  <0> d   1       1.862  -4.038   4.697  0.00  0.00     0.036 A 
ATOM      2  C9  <0> d   1       0.890  -4.821   5.298  0.00  0.00     0.076 A 
ATOM      3  C10 <0> d   1       0.987  -6.210   5.280  0.00  0.00     0.038 A 
ATOM      4  C11 <0> d   1       2.047  -6.815   4.666  0.00  0.00     0.021 A 
ATOM      5  C12 <0> d   1       3.033  -6.040   4.056  0.00  0.00     0.051 A 
ATOM      6  C13 <0> d   1       2.943  -4.638   4.064  0.00  0.00     0.101 A 
ATOM      7  O1  <0> d   1       4.002  -4.112   3.411  0.00  0.00    -0.305 OA
ATOM      8  C14 <0> d   1       4.830  -5.072   2.939  0.00  0.00     0.127 A 
ATOM      9  C15 <0> d   1       5.984  -4.868   2.239  0.00  0.00     0.041 C 
ATOM     10  C24 <0> d   1       4.271  -6.372   3.328  0.00  0.00     0.218 A 
ATOM     11  O2  <0> d   1       4.724  -7.479   3.091  0.00  0.00    -0.284 OA
ENDROOT
BRANCH   1  12
ATOM     12  C7  <0> d   1       1.744  -2.536   4.725  0.00  0.00     0.279 C 
BRANCH  12  13
ATOM     13  N2  <0> d   1       0.991  -2.083   3.547  0.00  0.00    -0.064 N 
ATOM     14  C4  <0> d   1       0.772  -0.633   3.635  0.00  0.00     0.265 C 
ATOM     15  C3  <0> d   1      -0.028  -0.163   2.418  0.00  0.00     0.300 C 
ATOM     16  N1  <0> d   1       0.713  -0.491   1.192  0.00  0.00     0.091 N 
ATOM     17  C6  <0> d   1       0.961  -1.937   1.103  0.00  0.00     0.300 C 
ATOM     18  C5  <0> d   1       1.753  -2.392   2.330  0.00  0.00     0.265 C 
ATOM     19  H27 <0> d   1       0.100  -2.556   3.515  0.00  0.00     0.280 HD
BRANCH  16  20
ATOM     20  C2  <0> d   1       0.002  -0.004   0.002  0.00  0.00     0.268 C 
ATOM     21  C1  <0> d   1      -0.019   1.526   0.010  0.00  0.00     0.037 C 
ENDBRANCH  16  20
ENDBRANCH  12  13
ENDBRANCH   1  12
BRANCH   2  22
ATOM     22  O3  <0> d   1      -0.167  -4.229   5.912  0.00  0.00    -0.360 OA
ATOM     23  H26 <0> d   1      -0.925  -4.079   5.331  0.00  0.00     0.217 HD
ENDBRANCH   2  22
BRANCH   9  24
ATOM     24  C16 <0> d   1       6.407  -3.557   1.946  0.00  0.00     0.004 C 
ATOM     25  C17 <0> d   1       7.552  -3.354   1.250  0.00  0.00     0.011 C 
BRANCH  25  26
ATOM     26  C18 <0> d   1       7.994  -1.986   0.944  0.00  0.00    -0.036 A 
ATOM     27  C23 <0> d   1       9.176  -1.773   0.226  0.00  0.00     0.011 A 
ATOM     28  C22 <0> d   1       9.580  -0.487  -0.063  0.00  0.00     0.001 A 
ATOM     29  C21 <0> d   1       8.826   0.592   0.367  0.00  0.00     0.000 A 
ATOM     30  C20 <0> d   1       7.659   0.390   1.083  0.00  0.00     0.001 A 
ATOM     31  C19 <0> d   1       7.237  -0.890   1.374  0.00  0.00     0.011 A 
ENDBRANCH  25  26
ENDBRANCH   9  24
TORSDOF 6
