REMARK  4 active torsions:
REMARK  status: ('A' for Active; 'I' for Inactive)
REMARK    1  A    between atoms: C6_6  and  C12_14 
REMARK    2  A    between atoms: C12_14  and  N1_15 
REMARK    3  A    between atoms: N2_18  and  C17_21 
REMARK    4  A    between atoms: C17_21  and  C18_22 
ROOT
ATOM      1  N1  <0> d   1      -0.646  -5.279  -1.745  0.00  0.00     0.096 N 
ATOM      2  C13 <0> d   1      -1.194  -6.236  -0.774  0.00  0.00     0.303 C 
ATOM      3  C14 <0> d   1      -2.647  -6.553  -1.137  0.00  0.00     0.303 C 
ATOM      4  N2  <0> d   1      -2.700  -7.101  -2.500  0.00  0.00     0.096 N 
ATOM      5  C15 <0> d   1      -2.153  -6.143  -3.471  0.00  0.00     0.303 C 
ATOM      6  C16 <0> d   1      -0.700  -5.827  -3.108  0.00  0.00     0.303 C 
ENDROOT
BRANCH   1   7
ATOM      7  C12 <0> d   1       0.724  -4.891  -1.387  0.00  0.00     0.312 C 
BRANCH   7   8
ATOM      8  C6  <0> d   1       0.706  -4.116  -0.095  0.00  0.00    -0.011 A 
ATOM      9  C5  <0> d   1       0.432  -2.675  -0.085  0.00  0.00     0.013 A 
ATOM     10  C4  <0> d   1       0.180  -1.981  -1.273  0.00  0.00    -0.048 A 
ATOM     11  C9  <0> d   1       0.424  -1.992   1.143  0.00  0.00     0.097 A 
ATOM     12  C3  <0> d   1      -0.072  -0.638  -1.232  0.00  0.00     0.015 A 
ATOM     13  C25 <0> d   1       0.187  -2.710  -2.592  0.00  0.00     0.049 C 
ATOM     14  C2  <0> d   1      -0.080   0.040  -0.021  0.00  0.00    -0.053 A 
ATOM     15  C1  <0> d   1      -0.360   1.521   0.002  0.00  0.00     0.049 C 
ATOM     16  C10 <0> d   1       0.170  -0.626   1.160  0.00  0.00    -0.021 A 
ATOM     17  C11 <0> d   1       0.164   0.125   2.467  0.00  0.00     0.052 C 
ATOM     18  O2  <0> d   1       0.667  -2.663   2.288  0.00  0.00    -0.274 OA
ATOM     19  C8  <0> d   1       0.919  -3.982   2.287  0.00  0.00     0.288 A 
ATOM     20  C7  <0> d   1       0.942  -4.731   1.091  0.00  0.00     0.092 A 
ATOM     21  O1  <0> d   1       1.133  -4.546   3.345  0.00  0.00    -0.260 OA
ENDBRANCH   7   8
ENDBRANCH   1   7
BRANCH   4  22
ATOM     22  C17 <0> d   1      -4.071  -7.488  -2.858  0.00  0.00     0.311 C 
BRANCH  22  23
ATOM     23  C18 <0> d   1      -4.053  -8.264  -4.149  0.00  0.00    -0.027 A 
ATOM     24  C23 <0> d   1      -3.917  -9.639  -4.126  0.00  0.00     0.048 A 
ATOM     25  C22 <0> d   1      -3.905 -10.355  -5.312  0.00  0.00     0.105 A 
ATOM     26  C21 <0> d   1      -4.019  -9.684  -6.527  0.00  0.00     0.105 A 
ATOM     27  O3  <0> d   1      -3.789 -11.692  -5.561  0.00  0.00    -0.323 OA
ATOM     28  C20 <0> d   1      -4.149  -8.305  -6.543  0.00  0.00     0.040 A 
ATOM     29  O4  <0> d   1      -3.975 -10.601  -7.538  0.00  0.00    -0.323 OA
ATOM     30  C19 <0> d   1      -4.166  -7.598  -5.356  0.00  0.00     0.012 A 
ATOM     31  C24 <0> d   1      -4.244 -11.872  -6.916  0.00  0.00     0.352 C 
ENDBRANCH  22  23
ENDBRANCH   4  22
TORSDOF 4
