REMARK  4 active torsions:
REMARK  status: ('A' for Active; 'I' for Inactive)
REMARK    1  A    between atoms: C4_4  and  O3_28 
REMARK    2  A    between atoms: C5_5  and  C17_20 
REMARK    3  A    between atoms: C10_11  and  C11_12 
REMARK    4  A    between atoms: C17_20  and  N1_21 
ROOT
ATOM      1  C1  <0> d   1      -0.702   1.600   0.141  0.00  0.00     0.049 C 
ATOM      2  C2  <0> d   1      -0.775   0.095   0.114  0.00  0.00    -0.042 A 
ATOM      3  C3  <0> d   1      -1.033  -0.557  -1.058  0.00  0.00     0.045 A 
ATOM      4  C4  <0> d   1      -1.101  -1.947  -1.085  0.00  0.00     0.077 A 
ATOM      5  C5  <0> d   1      -0.908  -2.685   0.072  0.00  0.00     0.038 A 
ATOM      6  C6  <0> d   1      -0.644  -2.038   1.272  0.00  0.00     0.102 A 
ATOM      7  C7  <0> d   1      -0.573  -0.635   1.286  0.00  0.00     0.057 A 
ATOM      8  C8  <0> d   1      -0.278  -0.247   2.677  0.00  0.00     0.219 A 
ATOM      9  O1  <0> d   1      -0.138   0.878   3.125  0.00  0.00    -0.284 OA
ATOM     10  C9  <0> d   1      -0.189  -1.523   3.404  0.00  0.00     0.128 A 
ATOM     11  C10 <0> d   1       0.069  -1.675   4.728  0.00  0.00     0.056 C 
ATOM     12  O2  <0> d   1      -0.423  -2.517   2.516  0.00  0.00    -0.305 OA
ENDROOT
BRANCH   5  13
ATOM     13  C17 <0> d   1      -0.985  -4.189   0.028  0.00  0.00     0.317 C 
BRANCH  13  14
ATOM     14  N1  <0> d   1       0.348  -4.739  -0.252  0.00  0.00     0.096 N 
ATOM     15  C21 <0> d   1       0.275  -6.179  -0.537  0.00  0.00     0.303 C 
ATOM     16  C20 <0> d   1       1.668  -6.697  -0.900  0.00  0.00     0.302 C 
ATOM     17  N2  <0> d   1       2.592  -6.429   0.211  0.00  0.00     0.087 N 
ATOM     18  C19 <0> d   1       2.666  -4.990   0.496  0.00  0.00     0.302 C 
ATOM     19  C22 <0> d   1       3.925  -6.980  -0.069  0.00  0.00     0.310 C 
ATOM     20  C18 <0> d   1       1.272  -4.472   0.859  0.00  0.00     0.303 C 
ENDBRANCH  13  14
ENDBRANCH   5  13
BRANCH   4  21
ATOM     21  O3  <0> d   1      -1.358  -2.586  -2.255  0.00  0.00    -0.360 OA
ATOM     22  H23 <0> d   1      -0.566  -2.809  -2.763  0.00  0.00     0.217 HD
ENDBRANCH   4  21
BRANCH  11  23
ATOM     23  C11 <0> d   1      -0.018  -3.005   5.345  0.00  0.00     0.005 A 
ATOM     24  C16 <0> d   1      -0.103  -3.132   6.738  0.00  0.00     0.126 A 
ATOM     25  C15 <0> d   1      -0.189  -4.388   7.309  0.00  0.00     0.043 A 
ATOM     26  F1  <0> d   1      -0.106  -2.030   7.520  0.00  0.00    -0.205 F 
ATOM     27  C14 <0> d   1      -0.180  -5.516   6.509  0.00  0.00     0.003 A 
ATOM     28  C13 <0> d   1      -0.090  -5.398   5.132  0.00  0.00     0.001 A 
ATOM     29  C12 <0> d   1      -0.009  -4.154   4.545  0.00  0.00     0.014 A 
ENDBRANCH  11  23
TORSDOF 4
