REMARK  7 active torsions:
REMARK  status: ('A' for Active; 'I' for Inactive)
REMARK    1  A    between atoms: C2_2  and  C4_4 
REMARK    2  A    between atoms: C4_4  and  O1_5 
REMARK    3  A    between atoms: O1_5  and  C5_6 
REMARK    4  A    between atoms: C7_8  and  O2_9 
REMARK    5  A    between atoms: C8_10  and  C9_11 
REMARK    6  A    between atoms: C10_12  and  C14_21 
REMARK    7  A    between atoms: C11_13  and  C13_17 
ROOT
ATOM      1  C9  <0> d   1       0.131  -5.438  -5.620  0.00  0.00     0.084 A 
ATOM      2  C10 <0> d   1      -0.908  -5.356  -6.569  0.00  0.00     0.038 A 
ATOM      3  C11 <0> d   1      -0.962  -6.328  -7.568  0.00  0.00     0.155 A 
ATOM      4  N1  <0> d   1      -0.045  -7.282  -7.587  0.00  0.00    -0.236 NA
ATOM      5  C12 <0> d   1       0.913  -7.326  -6.681  0.00  0.00     0.234 A 
ATOM      6  N2  <0> d   1       1.012  -6.431  -5.721  0.00  0.00    -0.240 NA
ENDROOT
BRANCH   1   7
ATOM      7  C8  <0> d   1       0.243  -4.437  -4.537  0.00  0.00     0.027 A 
ATOM      8  C7  <0> d   1       0.399  -4.854  -3.209  0.00  0.00     0.081 A 
ATOM      9  C6  <0> d   1       0.503  -3.911  -2.201  0.00  0.00     0.074 A 
ATOM     10  C5  <0> d   1       0.452  -2.559  -2.506  0.00  0.00     0.071 A 
ATOM     11  C21 <0> d   1       0.291  -2.145  -3.823  0.00  0.00     0.038 A 
ATOM     12  C20 <0> d   1       0.192  -3.075  -4.835  0.00  0.00     0.019 A 
BRANCH   8  13
ATOM     13  O2  <0> d   1       0.449  -6.178  -2.912  0.00  0.00    -0.360 OA
ATOM     14  H17 <0> d   1      -0.415  -6.571  -2.726  0.00  0.00     0.217 HD
ENDBRANCH   8  13
BRANCH  10  15
ATOM     15  O1  <0> d   1       0.555  -1.637  -1.515  0.00  0.00    -0.347 OA
BRANCH  15  16
ATOM     16  C4  <0> d   1       0.489  -0.262  -1.898  0.00  0.00     0.208 C 
BRANCH  16  17
ATOM     17  C2  <0> d   1       0.620   0.608  -0.674  0.00  0.00    -0.069 C 
ATOM     18  C1  <0> d   1       0.581   2.108  -0.809  0.00  0.00     0.044 C 
ATOM     19  C3  <0> d   1       0.767   0.059   0.506  0.00  0.00     0.016 C 
ENDBRANCH  16  17
ENDBRANCH  15  16
ENDBRANCH  10  15
ENDBRANCH   1   7
BRANCH   2  20
ATOM     20  C14 <0> d   1      -1.914  -4.269  -6.508  0.00  0.00    -0.021 A 
ATOM     21  C19 <0> d   1      -1.944  -3.287  -7.496  0.00  0.00     0.012 A 
ATOM     22  C18 <0> d   1      -2.886  -2.280  -7.436  0.00  0.00     0.001 A 
ATOM     23  C17 <0> d   1      -3.793  -2.239  -6.392  0.00  0.00     0.000 A 
ATOM     24  C16 <0> d   1      -3.765  -3.208  -5.406  0.00  0.00     0.001 A 
ATOM     25  C15 <0> d   1      -2.830  -4.223  -5.458  0.00  0.00     0.012 A 
ENDBRANCH   2  20
BRANCH   3  26
ATOM     26  C13 <0> d   1      -2.050  -6.294  -8.610  0.00  0.00     0.435 C 
ATOM     27  F1  <0> d   1      -1.624  -5.533  -9.704  0.00  0.00    -0.165 F 
ATOM     28  F2  <0> d   1      -2.334  -7.597  -9.031  0.00  0.00    -0.165 F 
ATOM     29  F3  <0> d   1      -3.202  -5.719  -8.063  0.00  0.00    -0.165 F 
ENDBRANCH   3  26
TORSDOF 7
