REMARK  3 active torsions:
REMARK  status: ('A' for Active; 'I' for Inactive)
REMARK    1  A    between atoms: C9_10  and  C10_11 
REMARK    2  A    between atoms: N1_21  and  C19_24 
REMARK    3  A    between atoms: C19_24  and  C20_25 
ROOT
ATOM      1  C1  <0> d   1       2.714   6.153  -6.019  0.00  0.00     0.054 C 
ATOM      2  C2  <0> d   1       3.053   4.790  -5.472  0.00  0.00     0.007 A 
ATOM      3  C3  <0> d   1       2.821   4.504  -4.133  0.00  0.00     0.087 A 
ATOM      4  C4  <0> d   1       3.129   3.249  -3.619  0.00  0.00     0.005 A 
ATOM      5  C5  <0> d   1       3.666   2.287  -4.431  0.00  0.00     0.030 A 
ATOM      6  C6  <0> d   1       3.906   2.563  -5.776  0.00  0.00     0.052 A 
ATOM      7  C7  <0> d   1       3.598   3.825  -6.308  0.00  0.00     0.099 A 
ATOM      8  O1  <0> d   1       3.914   3.855  -7.622  0.00  0.00    -0.305 OA
ATOM      9  C8  <0> d   1       4.431   2.677  -8.042  0.00  0.00     0.127 A 
ATOM     10  C9  <0> d   1       4.846   2.387  -9.301  0.00  0.00     0.053 C 
ATOM     11  C16 <0> d   1       4.460   1.767  -6.886  0.00  0.00     0.218 A 
ATOM     12  O2  <0> d   1       4.856   0.615  -6.854  0.00  0.00    -0.284 OA
ATOM     13  C17 <0> d   1       2.875   2.928  -2.167  0.00  0.00     0.317 C 
ATOM     14  N1  <0> d   1       2.701   4.175  -1.410  0.00  0.00     0.120 N 
ATOM     15  C18 <0> d   1       1.732   5.050  -2.090  0.00  0.00     0.448 C 
ATOM     16  O3  <0> d   1       2.290   5.469  -3.337  0.00  0.00    -0.320 OA
ENDROOT
BRANCH  10  17
ATOM     17  C10 <0> d   1       4.649   3.362 -10.382  0.00  0.00    -0.033 A 
ATOM     18  C15 <0> d   1       4.151   4.639 -10.095  0.00  0.00     0.014 A 
ATOM     19  C14 <0> d   1       3.969   5.548 -11.114  0.00  0.00     0.043 A 
ATOM     20  C13 <0> d   1       4.279   5.202 -12.421  0.00  0.00     0.116 A 
ATOM     21  C12 <0> d   1       4.772   3.939 -12.712  0.00  0.00     0.043 A 
ATOM     22  F1  <0> d   1       4.098   6.099 -13.415  0.00  0.00    -0.206 F 
ATOM     23  C11 <0> d   1       4.964   3.021 -11.703  0.00  0.00     0.014 A 
ENDBRANCH  10  17
BRANCH  14  24
ATOM     24  C19 <0> d   1       2.284   3.899  -0.029  0.00  0.00     0.314 C 
BRANCH  24  25
ATOM     25  C20 <0> d   1       1.015   3.086  -0.041  0.00  0.00    -0.027 A 
ATOM     26  C24 <0> d   1      -0.226   3.706  -0.041  0.00  0.00     0.028 A 
ATOM     27  C23 <0> d   1      -1.368   2.928  -0.053  0.00  0.00     0.116 A 
ATOM     28  N2  <0> d   1      -1.287   1.612  -0.069  0.00  0.00    -0.273 NA
ATOM     29  C22 <0> d   1      -0.125   0.988  -0.064  0.00  0.00     0.116 A 
ATOM     30  C21 <0> d   1       1.060   1.700  -0.053  0.00  0.00     0.028 A 
ENDBRANCH  24  25
ENDBRANCH  14  24
TORSDOF 3
