REMARK  4 active torsions:
REMARK  status: ('A' for Active; 'I' for Inactive)
REMARK    1  A    between atoms: C3_3  and  O4_18 
REMARK    2  A    between atoms: C9_10  and  C11_13 
REMARK    3  A    between atoms: C11_13  and  N1_14 
REMARK    4  A    between atoms: O4_18  and  C14_19 
ROOT
ATOM      1  C1  <0> d   1      -1.696  -1.107  -4.963  0.00  0.00     0.080 C 
ATOM      2  C2  <0> d   1      -1.569  -2.119  -3.855  0.00  0.00     0.087 A 
ATOM      3  C3  <0> d   1      -1.532  -3.428  -4.176  0.00  0.00     0.156 A 
ATOM      4  C4  <0> d   1      -1.401  -4.401  -3.145  0.00  0.00     0.221 A 
ATOM      5  O1  <0> d   1      -1.364  -5.594  -3.398  0.00  0.00    -0.284 OA
ATOM      6  C5  <0> d   1      -1.330  -3.908  -1.759  0.00  0.00     0.052 A 
ATOM      7  C6  <0> d   1      -1.217  -4.786  -0.680  0.00  0.00     0.021 A 
ATOM      8  C7  <0> d   1      -1.153  -4.292   0.592  0.00  0.00     0.041 A 
ATOM      9  C8  <0> d   1      -1.200  -2.917   0.817  0.00  0.00     0.118 A 
ATOM     10  C9  <0> d   1      -1.312  -2.034  -0.243  0.00  0.00     0.039 A 
ATOM     11  C10 <0> d   1      -1.383  -2.520  -1.541  0.00  0.00     0.101 A 
ATOM     12  O2  <0> d   1      -1.498  -1.682  -2.591  0.00  0.00    -0.311 OA
ATOM     13  O3  <0> d   1      -1.135  -2.441   2.086  0.00  0.00    -0.191 OA
ENDROOT
BRANCH   3  14
ATOM     14  O4  <0> d   1      -1.609  -3.816  -5.479  0.00  0.00    -0.303 OA
BRANCH  14  15
ATOM     15  C14 <0> d   1      -0.450  -3.943  -6.176  0.00  0.00     0.093 A 
ATOM     16  C19 <0> d   1      -0.479  -4.336  -7.507  0.00  0.00     0.044 A 
ATOM     17  C18 <0> d   1       0.702  -4.464  -8.214  0.00  0.00     0.022 A 
ATOM     18 Br1  <0> d   1      -2.131  -4.696  -8.352  0.00  0.00    -0.048 Br
ATOM     19  C17 <0> d   1       1.911  -4.200  -7.596  0.00  0.00     0.002 A 
ATOM     20  C16 <0> d   1       1.942  -3.809  -6.270  0.00  0.00     0.003 A 
ATOM     21  C15 <0> d   1       0.764  -3.675  -5.561  0.00  0.00     0.039 A 
ENDBRANCH  14  15
ENDBRANCH   3  14
BRANCH  10  22
ATOM     22  C11 <0> d   1      -1.362  -0.549   0.012  0.00  0.00     0.278 C 
BRANCH  22  23
ATOM     23  N1  <0> d   1       0.002  -0.004   0.002  0.00  0.00    -0.075 N 
ATOM     24  C12 <0> d   1      -0.018   1.465   0.010  0.00  0.00     0.269 C 
ATOM     25  C13 <0> d   1       0.786  -0.526   1.129  0.00  0.00     0.269 C 
ATOM     26  H18 <0> d   1       0.490  -0.331  -0.928  0.00  0.00     0.279 HD
ENDBRANCH  22  23
ENDBRANCH  10  22
TORSDOF 4
