REMARK  5 active torsions:
REMARK  status: ('A' for Active; 'I' for Inactive)
REMARK    1  A    between atoms: O1_2  and  C2_3 
REMARK    2  A    between atoms: C2_3  and  C3_5 
REMARK    3  A    between atoms: C6_8  and  C9_11 
REMARK    4  A    between atoms: C16_19  and  C18_22 
REMARK    5  A    between atoms: C18_22  and  N1_23 
ROOT
ATOM      1  C9  <0> d   1       1.955  -1.605  -0.026  0.00  0.00     0.053 C 
ATOM      2  C10 <0> d   1       1.433  -0.354  -0.038  0.00  0.00     0.127 A 
ATOM      3  C11 <0> d   1      -0.001  -0.007  -0.027  0.00  0.00     0.218 A 
ATOM      4  O3  <0> d   1      -0.952  -0.768  -0.005  0.00  0.00    -0.284 OA
ATOM      5  C12 <0> d   1      -0.023   1.466  -0.048  0.00  0.00     0.051 A 
ATOM      6  C13 <0> d   1      -1.056   2.405  -0.046  0.00  0.00     0.021 A 
ATOM      7  C14 <0> d   1      -0.764   3.739  -0.073  0.00  0.00     0.041 A 
ATOM      8  C15 <0> d   1       0.562   4.164  -0.093  0.00  0.00     0.118 A 
ATOM      9  C16 <0> d   1       1.598   3.243  -0.091  0.00  0.00     0.041 A 
ATOM     10  C17 <0> d   1       1.317   1.883  -0.069  0.00  0.00     0.101 A 
ATOM     11  O4  <0> d   1       2.131   0.804  -0.062  0.00  0.00    -0.305 OA
ATOM     12  O6  <0> d   1       0.843   5.492  -0.115  0.00  0.00    -0.191 OA
ENDROOT
BRANCH   1  13
ATOM     13  C6  <0> d   1       3.406  -1.796  -0.152  0.00  0.00    -0.033 A 
ATOM     14  C5  <0> d   1       4.262  -0.688  -0.153  0.00  0.00     0.012 A 
ATOM     15  C4  <0> d   1       5.616  -0.868  -0.271  0.00  0.00     0.018 A 
ATOM     16  C3  <0> d   1       6.143  -2.158  -0.388  0.00  0.00     0.039 A 
ATOM     17  C8  <0> d   1       5.290  -3.265  -0.387  0.00  0.00     0.018 A 
ATOM     18  C7  <0> d   1       3.936  -3.088  -0.264  0.00  0.00     0.012 A 
BRANCH  16  19
ATOM     19  C2  <0> d   1       7.601  -2.350  -0.514  0.00  0.00     0.292 C 
ATOM     20  O2  <0> d   1       8.343  -1.388  -0.515  0.00  0.00    -0.259 OA
BRANCH  19  21
ATOM     21  O1  <0> d   1       8.110  -3.593  -0.627  0.00  0.00    -0.323 OA
ATOM     22  C1  <0> d   1       9.552  -3.707  -0.747  0.00  0.00     0.213 C 
ENDBRANCH  19  21
ENDBRANCH  16  19
ENDBRANCH   1  13
BRANCH   9  23
ATOM     23  C18 <0> d   1       3.028   3.718  -0.114  0.00  0.00     0.317 C 
BRANCH  23  24
ATOM     24  N1  <0> d   1       3.477   3.853  -1.506  0.00  0.00     0.097 N 
ATOM     25  C22 <0> d   1       4.778   4.535  -1.576  0.00  0.00     0.299 C 
ATOM     26  C21 <0> d   1       5.179   4.707  -3.043  0.00  0.00     0.198 C 
ATOM     27  O5  <0> d   1       5.205   3.426  -3.679  0.00  0.00    -0.388 OA
ATOM     28  C20 <0> d   1       3.954   2.734  -3.630  0.00  0.00     0.198 C 
ATOM     29  C19 <0> d   1       3.540   2.542  -2.168  0.00  0.00     0.299 C 
ENDBRANCH  23  24
ENDBRANCH   9  23
TORSDOF 5
