REMARK  7 active torsions:
REMARK  status: ('A' for Active; 'I' for Inactive)
REMARK    1  A    between atoms: O1_2  and  C2_3 
REMARK    2  A    between atoms: C5_6  and  C9_11 
REMARK    3  A    between atoms: C7_8  and  O2_9 
REMARK    4  A    between atoms: C16_20  and  O5_36 
REMARK    5  A    between atoms: C17_21  and  C18_22 
REMARK    6  A    between atoms: C18_22  and  N1_23 
REMARK    7  A    between atoms: N2_26  and  C23_29 
ROOT
ATOM      1  C9  <0> d   1      -4.957  -2.641   0.102  0.00  0.00     0.048 C 
ATOM      2  C10 <0> d   1      -5.346  -3.397  -0.958  0.00  0.00     0.159 C 
ATOM      3  O3  <0> d   1      -6.516  -4.038  -0.997  0.00  0.00    -0.320 OA
ATOM      4  C11 <0> d   1      -7.514  -3.746  -0.141  0.00  0.00     0.100 A 
ATOM      5  C12 <0> d   1      -7.259  -2.989   1.016  0.00  0.00     0.050 A 
ATOM      6  C13 <0> d   1      -5.877  -2.523   1.249  0.00  0.00     0.197 C 
ATOM      7  O4  <0> d   1      -5.519  -2.067   2.321  0.00  0.00    -0.286 OA
ATOM      8  C14 <0> d   1      -8.288  -2.693   1.910  0.00  0.00     0.021 A 
ATOM      9  C15 <0> d   1      -9.555  -3.136   1.655  0.00  0.00     0.038 A 
ATOM     10  C16 <0> d   1      -9.820  -3.881   0.509  0.00  0.00     0.076 A 
ATOM     11  C17 <0> d   1      -8.808  -4.186  -0.386  0.00  0.00     0.035 A 
ENDROOT
BRANCH  11  12
ATOM     12  C18 <0> d   1      -9.110  -4.994  -1.622  0.00  0.00     0.279 C 
BRANCH  12  13
ATOM     13  N1  <0> d   1      -8.943  -6.423  -1.326  0.00  0.00    -0.064 N 
ATOM     14  C22 <0> d   1      -9.352  -7.214  -2.494  0.00  0.00     0.255 C 
ATOM     15  C21 <0> d   1      -9.288  -8.705  -2.148  0.00  0.00     0.150 C 
ATOM     16  N2  <0> d   1      -7.937  -9.010  -1.651  0.00  0.00    -0.378 N 
ATOM     17  C20 <0> d   1      -7.381  -8.159  -0.588  0.00  0.00     0.150 C 
ATOM     18  C19 <0> d   1      -7.536  -6.694  -1.008  0.00  0.00     0.255 C 
ATOM     19  H28 <0> d   1      -9.518  -6.671  -0.535  0.00  0.00     0.280 HD
BRANCH  16  20
ATOM     20  C23 <0> d   1      -7.203 -10.079  -2.175  0.00  0.00     0.030 A 
ATOM     21  C28 <0> d   1      -7.788 -10.941  -3.092  0.00  0.00     0.032 A 
ATOM     22  C27 <0> d   1      -7.059 -11.993  -3.612  0.00  0.00     0.044 A 
ATOM     23  C26 <0> d   1      -5.750 -12.195  -3.210  0.00  0.00     0.116 A 
ATOM     24  C25 <0> d   1      -5.166 -11.339  -2.291  0.00  0.00     0.044 A 
ATOM     25  F1  <0> d   1      -5.040 -13.227  -3.716  0.00  0.00    -0.206 F 
ATOM     26  C24 <0> d   1      -5.889 -10.283  -1.773  0.00  0.00     0.032 A 
ENDBRANCH  16  20
ENDBRANCH  12  13
ENDBRANCH  11  12
BRANCH  10  27
ATOM     27  O5  <0> d   1     -11.084  -4.313   0.266  0.00  0.00    -0.360 OA
ATOM     28  H27 <0> d   1     -11.619  -3.694  -0.249  0.00  0.00     0.217 HD
ENDBRANCH  10  27
BRANCH   1  29
ATOM     29  C5  <0> d   1      -3.640  -1.959   0.109  0.00  0.00    -0.017 A 
ATOM     30  C4  <0> d   1      -3.575  -0.567   0.119  0.00  0.00     0.015 A 
ATOM     31  C3  <0> d   1      -2.349   0.067   0.126  0.00  0.00     0.040 A 
ATOM     32  C2  <0> d   1      -1.180  -0.678   0.123  0.00  0.00     0.101 A 
ATOM     33  C7  <0> d   1      -1.239  -2.069   0.106  0.00  0.00     0.102 A 
ATOM     34  C6  <0> d   1      -2.465  -2.709   0.105  0.00  0.00     0.052 A 
BRANCH  32  35
ATOM     35  O1  <0> d   1       0.026  -0.050   0.129  0.00  0.00    -0.353 OA
ATOM     36  C1  <0> d   1       0.013   1.379   0.146  0.00  0.00     0.210 C 
ENDBRANCH  32  35
BRANCH  33  37
ATOM     37  O2  <0> d   1      -0.091  -2.799   0.097  0.00  0.00    -0.353 OA
ATOM     38  C8  <0> d   1      -0.226  -4.221   0.081  0.00  0.00     0.210 C 
ENDBRANCH  33  37
ENDBRANCH   1  29
TORSDOF 7
