REMARK  5 active torsions:
REMARK  status: ('A' for Active; 'I' for Inactive)
REMARK    1  A    between atoms: C4_4  and  O3_26 
REMARK    2  A    between atoms: C5_5  and  C15_18 
REMARK    3  A    between atoms: C9_10  and  C10_11 
REMARK    4  A    between atoms: C10_11  and  C11_12 
REMARK    5  A    between atoms: C15_18  and  N1_19 
ROOT
ATOM      1  C1  <0> d   1       3.254   7.736   2.157  0.00  0.00     0.049 C 
ATOM      2  C2  <0> d   1       3.318   6.249   1.921  0.00  0.00    -0.042 A 
ATOM      3  C3  <0> d   1       3.326   5.758   0.645  0.00  0.00     0.045 A 
ATOM      4  C4  <0> d   1       3.390   4.385   0.424  0.00  0.00     0.077 A 
ATOM      5  C5  <0> d   1       3.437   3.501   1.490  0.00  0.00     0.038 A 
ATOM      6  C6  <0> d   1       3.430   3.984   2.791  0.00  0.00     0.102 A 
ATOM      7  C7  <0> d   1       3.370   5.372   3.003  0.00  0.00     0.057 A 
ATOM      8  C8  <0> d   1       3.378   5.561   4.464  0.00  0.00     0.219 A 
ATOM      9  O1  <0> d   1       3.337   6.617   5.075  0.00  0.00    -0.284 OA
ATOM     10  C9  <0> d   1       3.444   4.252   5.009  0.00  0.00     0.128 A 
ATOM     11  O2  <0> d   1       3.472   3.362   3.989  0.00  0.00    -0.305 OA
ENDROOT
BRANCH   5  12
ATOM     12  C15 <0> d   1       3.501   2.017   1.237  0.00  0.00     0.317 C 
BRANCH  12  13
ATOM     13  N1  <0> d   1       2.138   1.472   1.171  0.00  0.00     0.096 N 
ATOM     14  C19 <0> d   1       2.158   0.003   1.162  0.00  0.00     0.300 C 
ATOM     15  C18 <0> d   1       0.721  -0.525   1.173  0.00  0.00     0.264 C 
ATOM     16  N2  <0> d   1       0.002  -0.004   0.002  0.00  0.00    -0.072 N 
ATOM     17  C17 <0> d   1      -0.018   1.465   0.010  0.00  0.00     0.264 C 
ATOM     18  C20 <0> d   1      -1.361  -0.549  -0.064  0.00  0.00     0.269 C 
ATOM     19  H23 <0> d   1       0.540  -0.332  -0.900  0.00  0.00     0.279 HD
ATOM     20  C16 <0> d   1       1.419   1.992  -0.001  0.00  0.00     0.300 C 
ENDBRANCH  12  13
ENDBRANCH   5  12
BRANCH   4  21
ATOM     21  O3  <0> d   1       3.403   3.908  -0.847  0.00  0.00    -0.360 OA
ATOM     22  H22 <0> d   1       3.454   2.824  -1.028  0.00  0.00     0.217 HD
ENDBRANCH   4  21
BRANCH  10  23
ATOM     23  C10 <0> d   1       3.473   3.942   6.338  0.00  0.00     0.060 C 
BRANCH  23  24
ATOM     24  C11 <0> d   1       3.539   2.591   6.747  0.00  0.00     0.007 A 
ATOM     25  S1  <0> d   1       3.586   1.114   5.747  0.00  0.00    -0.102 SA
ATOM     26  C14 <0> d   1       3.661  -0.060   7.019  0.00  0.00     0.050 A 
ATOM     27  C13 <0> d   1       3.640   0.699   8.147  0.00  0.00     0.008 A 
ATOM     28  C12 <0> d   1       3.578   2.065   8.035  0.00  0.00     0.019 A 
ENDBRANCH  23  24
ENDBRANCH  10  23
TORSDOF 5
