REMARK  9 active torsions:
REMARK  status: ('A' for Active; 'I' for Inactive)
REMARK    1  A    between atoms: O1_2  and  C2_3 
REMARK    2  A    between atoms: C2_3  and  C3_4 
REMARK    3  A    between atoms: C3_4  and  N1_5 
REMARK    4  A    between atoms: N1_5  and  C4_6 
REMARK    5  A    between atoms: N1_5  and  C7_10 
REMARK    6  A    between atoms: C4_6  and  C5_7 
REMARK    7  A    between atoms: C5_7  and  O2_8 
REMARK    8  A    between atoms: C7_10  and  C8_11 
REMARK    9  A    between atoms: C15_19  and  C16_20 
ROOT
ATOM      1  C8  <0> d   1       0.470  -4.164   2.329  0.00  0.00     0.039 A 
ATOM      2  C9  <0> d   1       1.838  -4.226   2.539  0.00  0.00     0.118 A 
ATOM      3  C10 <0> d   1       2.348  -4.684   3.751  0.00  0.00     0.041 A 
ATOM      4  C11 <0> d   1       1.500  -5.078   4.747  0.00  0.00     0.021 A 
ATOM      5  C12 <0> d   1       0.121  -5.021   4.549  0.00  0.00     0.051 A 
ATOM      6  C13 <0> d   1      -0.406  -4.556   3.333  0.00  0.00     0.101 A 
ATOM      7  O3  <0> d   1      -1.756  -4.586   3.379  0.00  0.00    -0.305 OA
ATOM      8  C14 <0> d   1      -2.209  -5.044   4.570  0.00  0.00     0.127 A 
ATOM      9  C15 <0> d   1      -3.508  -5.194   4.929  0.00  0.00     0.053 C 
ATOM     10  C22 <0> d   1      -1.035  -5.364   5.398  0.00  0.00     0.218 A 
ATOM     11  O4  <0> d   1      -1.021  -5.802   6.535  0.00  0.00    -0.284 OA
ATOM     12  O5  <0> d   1       2.688  -3.837   1.555  0.00  0.00    -0.191 OA
ENDROOT
BRANCH   1  13
ATOM     13  C7  <0> d   1      -0.068  -3.666   1.012  0.00  0.00     0.279 C 
BRANCH  13  14
ATOM     14  N1  <0> d   1      -0.368  -2.232   1.116  0.00  0.00    -0.063 N 
ATOM     15  H24 <0> d   1      -0.811  -1.918   0.266  0.00  0.00     0.280 HD
BRANCH  14  16
ATOM     16  C3  <0> d   1      -1.270  -2.002   2.252  0.00  0.00     0.261 C 
BRANCH  16  17
ATOM     17  C2  <0> d   1      -1.682  -0.528   2.287  0.00  0.00     0.194 C 
BRANCH  17  18
ATOM     18  O1  <0> d   1      -2.453  -0.222   1.123  0.00  0.00    -0.394 OA
ATOM     19  C1  <0> d   1      -2.890   1.137   1.057  0.00  0.00     0.201 C 
ENDBRANCH  17  18
ENDBRANCH  16  17
ENDBRANCH  14  16
BRANCH  14  20
ATOM     20  C4  <0> d   1       0.880  -1.484   1.322  0.00  0.00     0.261 C 
BRANCH  20  21
ATOM     21  C5  <0> d   1       1.749  -1.586   0.067  0.00  0.00     0.194 C 
BRANCH  21  22
ATOM     22  O2  <0> d   1       1.100  -0.918  -1.017  0.00  0.00    -0.394 OA
ATOM     23  C6  <0> d   1       1.833  -0.954  -2.243  0.00  0.00     0.201 C 
ENDBRANCH  21  22
ENDBRANCH  20  21
ENDBRANCH  14  20
ENDBRANCH  13  14
ENDBRANCH   1  13
BRANCH   9  24
ATOM     24  C16 <0> d   1      -4.573  -4.981   3.939  0.00  0.00    -0.033 A 
ATOM     25  C21 <0> d   1      -4.251  -4.761   2.595  0.00  0.00     0.013 A 
ATOM     26  C20 <0> d   1      -5.256  -4.569   1.672  0.00  0.00     0.020 A 
ATOM     27  C19 <0> d   1      -6.582  -4.580   2.073  0.00  0.00     0.011 A 
ATOM     28  C18 <0> d   1      -6.908  -4.790   3.403  0.00  0.00     0.020 A 
ATOM     29 Br1  <0> d   1      -7.952  -4.306   0.800  0.00  0.00    -0.051 Br
ATOM     30  C17 <0> d   1      -5.915  -4.991   4.337  0.00  0.00     0.013 A 
ENDBRANCH   9  24
TORSDOF 9
