REMARK  1 active torsions:
REMARK  status: ('A' for Active; 'I' for Inactive)
REMARK    1  A    between atoms: C9_10  and  C10_11 
ROOT
ATOM      1  C1  <0> d   1       3.725  -0.691  -0.129  0.00  0.00     0.054 C 
ATOM      2  C2  <0> d   1       2.401   0.029  -0.105  0.00  0.00     0.009 A 
ATOM      3  C3  <0> d   1       2.365   1.414  -0.114  0.00  0.00     0.116 A 
ATOM      4  C4  <0> d   1       1.149   2.091  -0.094  0.00  0.00     0.041 A 
ATOM      5  C5  <0> d   1      -0.025   1.392  -0.064  0.00  0.00     0.021 A 
ATOM      6  C6  <0> d   1      -0.004  -0.003  -0.054  0.00  0.00     0.051 A 
ATOM      7  C7  <0> d   1       1.217  -0.697  -0.075  0.00  0.00     0.099 A 
ATOM      8  O1  <0> d   1       0.985  -2.028  -0.060  0.00  0.00    -0.305 OA
ATOM      9  C8  <0> d   1      -0.339  -2.308  -0.030  0.00  0.00     0.127 A 
ATOM     10  C9  <0> d   1      -0.896  -3.544  -0.008  0.00  0.00     0.053 C 
ATOM     11  C16 <0> d   1      -1.064  -1.027  -0.023  0.00  0.00     0.218 A 
ATOM     12  O2  <0> d   1      -2.270  -0.852   0.002  0.00  0.00    -0.284 OA
ATOM     13  O3  <0> d   1       3.526   2.117  -0.143  0.00  0.00    -0.192 OA
ENDROOT
BRANCH  10  14
ATOM     14  C10 <0> d   1      -0.045  -4.736  -0.134  0.00  0.00    -0.034 A 
ATOM     15  C15 <0> d   1       1.349  -4.607  -0.148  0.00  0.00     0.011 A 
ATOM     16  C14 <0> d   1       2.139  -5.730  -0.267  0.00  0.00     0.001 A 
ATOM     17  C13 <0> d   1       1.559  -6.982  -0.372  0.00  0.00     0.000 A 
ATOM     18  C12 <0> d   1       0.181  -7.118  -0.360  0.00  0.00     0.001 A 
ATOM     19  C11 <0> d   1      -0.624  -6.006  -0.236  0.00  0.00     0.011 A 
ENDBRANCH  10  14
TORSDOF 1
