REMARK  7 active torsions:
REMARK  status: ('A' for Active; 'I' for Inactive)
REMARK    1  A    between atoms: N1_4  and  C7_9 
REMARK    2  A    between atoms: C7_9  and  C8_10 
REMARK    3  A    between atoms: C8_10  and  O2_11 
REMARK    4  A    between atoms: O2_11  and  C9_12 
REMARK    5  A    between atoms: C12_15  and  C15_19 
REMARK    6  A    between atoms: C16_20  and  C18_25 
REMARK    7  A    between atoms: C21_28  and  O4_31 
ROOT
ATOM      1  C9  <0> d   1      -2.070  -6.103   0.847  0.00  0.00     0.071 A 
ATOM      2  C10 <0> d   1      -2.276  -6.711  -0.385  0.00  0.00     0.038 A 
ATOM      3  C11 <0> d   1      -2.136  -8.076  -0.517  0.00  0.00     0.019 A 
ATOM      4  C12 <0> d   1      -1.788  -8.851   0.589  0.00  0.00     0.032 A 
ATOM      5  C13 <0> d   1      -1.581  -8.238   1.829  0.00  0.00     0.122 A 
ATOM      6  C14 <0> d   1      -1.718  -6.866   1.951  0.00  0.00     0.077 A 
ATOM      7  O3  <0> d   1      -1.241  -8.987   2.910  0.00  0.00    -0.191 OA
ENDROOT
BRANCH   4   8
ATOM      8  C15 <0> d   1      -1.637 -10.319   0.450  0.00  0.00     0.102 A 
ATOM      9  C16 <0> d   1      -2.558 -11.197  -0.176  0.00  0.00     0.022 A 
ATOM     10  C17 <0> d   1      -2.046 -12.457  -0.088  0.00  0.00     0.124 A 
ATOM     11  N2  <0> d   1      -0.864 -12.379   0.559  0.00  0.00    -0.288 N 
ATOM     12  H3  <0> d   1      -0.279 -13.125   0.762  0.00  0.00     0.188 HD
ATOM     13  N3  <0> d   1      -0.624 -11.038   0.881  0.00  0.00    -0.174 NA
BRANCH   9  14
ATOM     14  C18 <0> d   1      -3.844 -10.815  -0.810  0.00  0.00    -0.022 A 
ATOM     15  C23 <0> d   1      -4.111 -11.186  -2.126  0.00  0.00     0.015 A 
ATOM     16  C22 <0> d   1      -5.310 -10.835  -2.710  0.00  0.00     0.037 A 
ATOM     17  C21 <0> d   1      -6.244 -10.101  -1.993  0.00  0.00     0.068 A 
ATOM     18  C20 <0> d   1      -5.979  -9.724  -0.684  0.00  0.00     0.037 A 
ATOM     19  C19 <0> d   1      -4.784 -10.078  -0.092  0.00  0.00     0.015 A 
BRANCH  17  20
ATOM     20  O4  <0> d   1      -7.422  -9.751  -2.574  0.00  0.00    -0.356 OA
ATOM     21  C24 <0> d   1      -7.631 -10.171  -3.923  0.00  0.00     0.210 C 
ENDBRANCH  17  20
ENDBRANCH   9  14
ENDBRANCH   4   8
BRANCH   1  22
ATOM     22  O2  <0> d   1      -2.210  -4.757   0.970  0.00  0.00    -0.349 OA
BRANCH  22  23
ATOM     23  C8  <0> d   1      -2.574  -4.033  -0.206  0.00  0.00     0.206 C 
BRANCH  23  24
ATOM     24  C7  <0> d   1      -2.683  -2.543   0.126  0.00  0.00     0.299 C 
BRANCH  24  25
ATOM     25  N1  <0> d   1      -1.365  -2.034   0.529  0.00  0.00     0.095 N 
ATOM     26  C3  <0> d   1      -0.492  -1.849  -0.639  0.00  0.00     0.303 C 
ATOM     27  C2  <0> d   1       0.886  -1.376  -0.170  0.00  0.00     0.146 C 
ATOM     28  C1  <0> d   1       1.774  -1.105  -1.386  0.00  0.00     0.041 C 
ATOM     29  O1  <0> d   1       0.739  -0.174   0.591  0.00  0.00    -0.378 OA
ATOM     30  C5  <0> d   1      -0.106  -0.317   1.736  0.00  0.00     0.146 C 
ATOM     31  C4  <0> d   1      -1.494  -0.780   1.286  0.00  0.00     0.303 C 
ATOM     32  C6  <0> d   1       0.495  -1.354   2.687  0.00  0.00     0.041 C 
ENDBRANCH  24  25
ENDBRANCH  23  24
ENDBRANCH  22  23
ENDBRANCH   1  22
TORSDOF 7
