REMARK  7 active torsions:
REMARK  status: ('A' for Active; 'I' for Inactive)
REMARK    1  A    between atoms: O1_2  and  C2_3 
REMARK    2  A    between atoms: C5_6  and  C9_11 
REMARK    3  A    between atoms: C7_8  and  O2_9 
REMARK    4  A    between atoms: C16_20  and  O5_36 
REMARK    5  A    between atoms: C17_21  and  C18_22 
REMARK    6  A    between atoms: C18_22  and  N1_23 
REMARK    7  A    between atoms: N2_26  and  C23_29 
ROOT
ATOM      1  C9  <0> d   1      -4.970  -2.618   0.036  0.00  0.00     0.048 C 
ATOM      2  C10 <0> d   1      -5.365  -3.381  -1.016  0.00  0.00     0.159 C 
ATOM      3  O3  <0> d   1      -6.532  -4.028  -1.040  0.00  0.00    -0.320 OA
ATOM      4  C11 <0> d   1      -7.524  -3.735  -0.178  0.00  0.00     0.100 A 
ATOM      5  C12 <0> d   1      -7.262  -2.969   0.973  0.00  0.00     0.050 A 
ATOM      6  C13 <0> d   1      -5.880  -2.497   1.190  0.00  0.00     0.197 C 
ATOM      7  O4  <0> d   1      -5.515  -2.031   2.256  0.00  0.00    -0.286 OA
ATOM      8  C14 <0> d   1      -8.284  -2.672   1.874  0.00  0.00     0.021 A 
ATOM      9  C15 <0> d   1      -9.551  -3.123   1.633  0.00  0.00     0.038 A 
ATOM     10  C16 <0> d   1      -9.824  -3.877   0.494  0.00  0.00     0.076 A 
ATOM     11  C17 <0> d   1      -8.818  -4.182  -0.408  0.00  0.00     0.035 A 
ENDROOT
BRANCH  11  12
ATOM     12  C18 <0> d   1      -9.128  -4.999  -1.636  0.00  0.00     0.279 C 
BRANCH  12  13
ATOM     13  N1  <0> d   1      -8.952  -6.425  -1.333  0.00  0.00    -0.064 N 
ATOM     14  C22 <0> d   1      -9.368  -7.225  -2.492  0.00  0.00     0.255 C 
ATOM     15  C21 <0> d   1      -9.293  -8.714  -2.138  0.00  0.00     0.150 C 
ATOM     16  N2  <0> d   1      -7.937  -9.010  -1.651  0.00  0.00    -0.375 N 
ATOM     17  C20 <0> d   1      -7.375  -8.150  -0.598  0.00  0.00     0.150 C 
ATOM     18  C19 <0> d   1      -7.540  -6.688  -1.026  0.00  0.00     0.255 C 
ATOM     19  H28 <0> d   1      -9.519  -6.671  -0.536  0.00  0.00     0.280 HD
BRANCH  16  20
ATOM     20  C23 <0> d   1      -7.202 -10.078  -2.175  0.00  0.00     0.069 A 
ATOM     21  C28 <0> d   1      -6.376  -9.882  -3.277  0.00  0.00     0.142 A 
ATOM     22  C27 <0> d   1      -5.647 -10.940  -3.788  0.00  0.00     0.044 A 
ATOM     23  F1  <0> d   1      -6.282  -8.659  -3.843  0.00  0.00    -0.204 F 
ATOM     24  C26 <0> d   1      -5.749 -12.194  -3.213  0.00  0.00     0.003 A 
ATOM     25  C25 <0> d   1      -6.574 -12.392  -2.121  0.00  0.00     0.002 A 
ATOM     26  C24 <0> d   1      -7.300 -11.338  -1.601  0.00  0.00     0.032 A 
ENDBRANCH  16  20
ENDBRANCH  12  13
ENDBRANCH  11  12
BRANCH  10  27
ATOM     27  O5  <0> d   1     -11.088  -4.315   0.265  0.00  0.00    -0.360 OA
ATOM     28  H27 <0> d   1     -11.630  -3.701  -0.249  0.00  0.00     0.217 HD
ENDBRANCH  10  27
BRANCH   1  29
ATOM     29  C5  <0> d   1      -3.655  -1.930   0.027  0.00  0.00    -0.017 A 
ATOM     30  C4  <0> d   1      -3.596  -0.537   0.028  0.00  0.00     0.015 A 
ATOM     31  C3  <0> d   1      -2.373   0.102   0.019  0.00  0.00     0.040 A 
ATOM     32  C2  <0> d   1      -1.201  -0.638   0.010  0.00  0.00     0.101 A 
ATOM     33  C7  <0> d   1      -1.254  -2.029   0.003  0.00  0.00     0.102 A 
ATOM     34  C6  <0> d   1      -2.478  -2.675   0.017  0.00  0.00     0.052 A 
BRANCH  32  35
ATOM     35  O1  <0> d   1       0.002  -0.004   0.002  0.00  0.00    -0.353 OA
ATOM     36  C1  <0> d   1      -0.017   1.425   0.010  0.00  0.00     0.210 C 
ENDBRANCH  32  35
BRANCH  33  37
ATOM     37  O2  <0> d   1      -0.103  -2.753  -0.012  0.00  0.00    -0.353 OA
ATOM     38  C8  <0> d   1      -0.232  -4.177  -0.019  0.00  0.00     0.210 C 
ENDBRANCH  33  37
ENDBRANCH   1  29
TORSDOF 7
