REMARK  5 active torsions:
REMARK  status: ('A' for Active; 'I' for Inactive)
REMARK    1  A    between atoms: O1_2  and  C2_3 
REMARK    2  A    between atoms: C5_6  and  C9_11 
REMARK    3  A    between atoms: C7_8  and  O2_9 
REMARK    4  A    between atoms: C17_21  and  C18_22 
REMARK    5  A    between atoms: C18_22  and  N1_23 
ROOT
ATOM      1  C9  <0> d   1       2.508   1.071   0.099  0.00  0.00     0.048 A 
ATOM      2  C10 <0> d   1       3.453   1.403  -0.818  0.00  0.00     0.159 A 
ATOM      3  O3  <0> d   1       4.629   0.776  -0.899  0.00  0.00    -0.320 OA
ATOM      4  C11 <0> d   1       4.979  -0.245  -0.091  0.00  0.00     0.100 A 
ATOM      5  C12 <0> d   1       4.095  -0.699   0.903  0.00  0.00     0.050 A 
ATOM      6  C13 <0> d   1       2.787  -0.033   1.034  0.00  0.00     0.197 A 
ATOM      7  O4  <0> d   1       1.975  -0.378   1.875  0.00  0.00    -0.286 OA
ATOM      8  C14 <0> d   1       4.456  -1.755   1.740  0.00  0.00     0.021 A 
ATOM      9  C15 <0> d   1       5.676  -2.352   1.591  0.00  0.00     0.041 A 
ATOM     10  C16 <0> d   1       6.560  -1.909   0.610  0.00  0.00     0.118 A 
ATOM     11  C17 <0> d   1       6.216  -0.862  -0.229  0.00  0.00     0.039 A 
ATOM     12  O5  <0> d   1       7.769  -2.510   0.473  0.00  0.00    -0.191 OA
ENDROOT
BRANCH   1  13
ATOM     13  C5  <0> d   1       1.218   1.801   0.155  0.00  0.00    -0.017 A 
ATOM     14  C4  <0> d   1       0.017   1.095   0.170  0.00  0.00     0.015 A 
ATOM     15  C3  <0> d   1      -1.183   1.776   0.216  0.00  0.00     0.040 A 
ATOM     16  C2  <0> d   1      -1.196   3.162   0.258  0.00  0.00     0.101 A 
ATOM     17  C7  <0> d   1       0.001   3.872   0.242  0.00  0.00     0.102 A 
ATOM     18  C6  <0> d   1       1.206   3.195   0.191  0.00  0.00     0.052 A 
BRANCH  16  19
ATOM     19  O1  <0> d   1      -2.381   3.828   0.308  0.00  0.00    -0.353 OA
ATOM     20  C1  <0> d   1      -3.571   3.037   0.320  0.00  0.00     0.210 C 
ENDBRANCH  16  19
BRANCH  17  21
ATOM     21  O2  <0> d   1      -0.014   5.231   0.279  0.00  0.00    -0.353 OA
ATOM     22  C8  <0> d   1       1.251   5.895   0.261  0.00  0.00     0.210 C 
ENDBRANCH  17  21
ENDBRANCH   1  13
BRANCH  11  23
ATOM     23  C18 <0> d   1       7.181  -0.393  -1.287  0.00  0.00     0.279 C 
BRANCH  23  24
ATOM     24  N1  <0> d   1       7.055  -1.246  -2.477  0.00  0.00    -0.067 N 
ATOM     25  C22 <0> d   1       7.916  -0.756  -3.574  0.00  0.00     0.235 C 
ATOM     26  C21 <0> d   1       7.176  -1.046  -4.893  0.00  0.00     0.029 C 
ATOM     27  C20 <0> d   1       5.839  -1.697  -4.471  0.00  0.00     0.029 C 
ATOM     28  C19 <0> d   1       5.668  -1.220  -3.007  0.00  0.00     0.235 C 
ATOM     29  H23 <0> d   1       7.350  -2.256  -2.153  0.00  0.00     0.280 HD
ENDBRANCH  23  24
ENDBRANCH  11  23
TORSDOF 5
