REMARK  7 active torsions:
REMARK  status: ('A' for Active; 'I' for Inactive)
REMARK    1  A    between atoms: C2_2  and  C4_4 
REMARK    2  A    between atoms: C4_4  and  O1_5 
REMARK    3  A    between atoms: O1_5  and  C5_6 
REMARK    4  A    between atoms: C8_9  and  C11_13 
REMARK    5  A    between atoms: C12_14  and  O3_19 
REMARK    6  A    between atoms: O3_19  and  C14_20 
REMARK    7  A    between atoms: C19_25  and  O4_26 
ROOT
ATOM      1  C11 <0> d   1       0.198  -5.522  -5.513  0.00  0.00     0.125 A 
ATOM      2  C12 <0> d   1       0.280  -6.931  -5.502  0.00  0.00     0.124 A 
ATOM      3  C13 <0> d   1       0.371  -7.349  -6.787  0.00  0.00     0.149 A 
ATOM      4  N1  <0> d   1       0.349  -6.250  -7.585  0.00  0.00    -0.286 N 
ATOM      5  H1  <0> d   1       0.399  -6.248  -8.554  0.00  0.00     0.188 HD
ATOM      6  N2  <0> d   1       0.234  -5.120  -6.766  0.00  0.00    -0.172 NA
ENDROOT
BRANCH   1   7
ATOM      7  C8  <0> d   1       0.085  -4.647  -4.320  0.00  0.00     0.034 A 
ATOM      8  C7  <0> d   1       0.919  -4.850  -3.223  0.00  0.00     0.020 A 
ATOM      9  C6  <0> d   1       0.812  -4.035  -2.115  0.00  0.00     0.038 A 
ATOM     10  C5  <0> d   1      -0.126  -3.011  -2.090  0.00  0.00     0.071 A 
ATOM     11  C10 <0> d   1      -0.965  -2.807  -3.175  0.00  0.00     0.077 A 
ATOM     12  C9  <0> d   1      -0.860  -3.617  -4.293  0.00  0.00     0.122 A 
ATOM     13  O2  <0> d   1      -1.677  -3.414  -5.360  0.00  0.00    -0.191 OA
BRANCH  10  14
ATOM     14  O1  <0> d   1      -0.227  -2.212  -0.996  0.00  0.00    -0.347 OA
BRANCH  14  15
ATOM     15  C4  <0> d   1       0.667  -2.478   0.087  0.00  0.00     0.208 C 
BRANCH  15  16
ATOM     16  C2  <0> d   1       0.409  -1.499   1.203  0.00  0.00    -0.069 C 
ATOM     17  C1  <0> d   1       1.226  -1.567   2.468  0.00  0.00     0.044 C 
ATOM     18  C3  <0> d   1      -0.524  -0.589   1.074  0.00  0.00     0.016 C 
ENDBRANCH  15  16
ENDBRANCH  14  15
ENDBRANCH  10  14
ENDBRANCH   1   7
BRANCH   2  19
ATOM     19  O3  <0> d   1       0.269  -7.727  -4.398  0.00  0.00    -0.304 OA
BRANCH  19  20
ATOM     20  C14 <0> d   1       0.471  -9.060  -4.570  0.00  0.00     0.109 A 
ATOM     21  C19 <0> d   1       1.765  -9.562  -4.675  0.00  0.00     0.102 A 
ATOM     22  C18 <0> d   1       1.965 -10.922  -4.845  0.00  0.00     0.039 A 
ATOM     23  C17 <0> d   1       0.881 -11.777  -4.921  0.00  0.00     0.003 A 
ATOM     24  C16 <0> d   1      -0.405 -11.278  -4.822  0.00  0.00     0.003 A 
ATOM     25  C15 <0> d   1      -0.612  -9.922  -4.647  0.00  0.00     0.040 A 
BRANCH  21  26
ATOM     26  O4  <0> d   1       2.830  -8.719  -4.606  0.00  0.00    -0.353 OA
ATOM     27  C20 <0> d   1       4.128  -9.304  -4.721  0.00  0.00     0.210 C 
ENDBRANCH  21  26
ENDBRANCH  19  20
ENDBRANCH   2  19
TORSDOF 7
