REMARK  10 active torsions:
REMARK  status: ('A' for Active; 'I' for Inactive)
REMARK    1  A    between atoms: O1_2  and  C2_3 
REMARK    2  A    between atoms: C5_6  and  C9_11 
REMARK    3  A    between atoms: C7_8  and  O2_9 
REMARK    4  A    between atoms: C13_16  and  O5_22 
REMARK    5  A    between atoms: O5_22  and  C18_23 
REMARK    6  A    between atoms: C18_23  and  C19_24 
REMARK    7  A    between atoms: C19_24  and  N1_25 
REMARK    8  A    between atoms: N2_28  and  C24_31 
REMARK    9  A    between atoms: C24_31  and  C25_32 
REMARK   10  A    between atoms: C25_32  and  O6_33 
ROOT
ATOM      1  C9  <0> d   1      -2.622   1.614   0.504  0.00  0.00     0.048 A 
ATOM      2  C10 <0> d   1      -3.591   1.711   1.450  0.00  0.00     0.159 A 
ATOM      3  O3  <0> d   1      -4.703   0.971   1.418  0.00  0.00    -0.321 OA
ATOM      4  C11 <0> d   1      -4.962   0.067   0.453  0.00  0.00     0.091 A 
ATOM      5  C12 <0> d   1      -6.138  -0.673   0.475  0.00  0.00     0.075 A 
ATOM      6  C13 <0> d   1      -6.389  -1.596  -0.525  0.00  0.00     0.071 A 
ATOM      7  C14 <0> d   1      -5.472  -1.793  -1.556  0.00  0.00     0.038 A 
ATOM      8  C15 <0> d   1      -4.311  -1.075  -1.592  0.00  0.00     0.021 A 
ATOM      9  C16 <0> d   1      -4.044  -0.139  -0.591  0.00  0.00     0.049 A 
ATOM     10  C17 <0> d   1      -2.805   0.660  -0.602  0.00  0.00     0.197 A 
ATOM     11  O4  <0> d   1      -1.971   0.533  -1.482  0.00  0.00    -0.286 OA
ENDROOT
BRANCH   6  12
ATOM     12  O5  <0> d   1      -7.538  -2.317  -0.501  0.00  0.00    -0.349 OA
BRANCH  12  13
ATOM     13  C18 <0> d   1      -7.739  -3.255  -1.561  0.00  0.00     0.206 C 
BRANCH  13  14
ATOM     14  C19 <0> d   1      -9.078  -3.967  -1.365  0.00  0.00     0.299 C 
BRANCH  14  15
ATOM     15  N1  <0> d   1     -10.173  -2.996  -1.495  0.00  0.00     0.093 N 
ATOM     16  C23 <0> d   1     -10.402  -2.646  -2.904  0.00  0.00     0.300 C 
ATOM     17  C22 <0> d   1     -11.493  -1.576  -2.990  0.00  0.00     0.265 C 
ATOM     18  N2  <0> d   1     -12.724  -2.084  -2.369  0.00  0.00    -0.066 N 
ATOM     19  C21 <0> d   1     -12.495  -2.434  -0.960  0.00  0.00     0.265 C 
ATOM     20  H31 <0> d   1     -13.021  -2.999  -2.903  0.00  0.00     0.280 HD
ATOM     21  C20 <0> d   1     -11.404  -3.504  -0.875  0.00  0.00     0.300 C 
BRANCH  18  22
ATOM     22  C24 <0> d   1     -13.819  -1.113  -2.499  0.00  0.00     0.260 C 
BRANCH  22  23
ATOM     23  C25 <0> d   1     -14.354  -1.137  -3.932  0.00  0.00     0.192 C 
BRANCH  23  24
ATOM     24  O6  <0> d   1     -14.947  -2.409  -4.198  0.00  0.00    -0.399 OA
ATOM     25  H30 <0> d   1     -15.389  -2.615  -5.184  0.00  0.00     0.209 HD
ENDBRANCH  23  24
ENDBRANCH  22  23
ENDBRANCH  18  22
ENDBRANCH  14  15
ENDBRANCH  13  14
ENDBRANCH  12  13
ENDBRANCH   6  12
BRANCH   1  26
ATOM     26  C5  <0> d   1      -1.404   2.458   0.581  0.00  0.00    -0.017 A 
ATOM     27  C4  <0> d   1      -0.143   1.876   0.465  0.00  0.00     0.015 A 
ATOM     28  C3  <0> d   1       0.989   2.662   0.531  0.00  0.00     0.040 A 
ATOM     29  C2  <0> d   1       0.876   4.031   0.717  0.00  0.00     0.101 A 
ATOM     30  C7  <0> d   1      -0.381   4.618   0.839  0.00  0.00     0.102 A 
ATOM     31  C6  <0> d   1      -1.519   3.833   0.774  0.00  0.00     0.052 A 
BRANCH  29  32
ATOM     32  O1  <0> d   1       1.994   4.803   0.780  0.00  0.00    -0.353 OA
ATOM     33  C1  <0> d   1       3.251   4.136   0.647  0.00  0.00     0.210 C 
ENDBRANCH  29  32
BRANCH  30  34
ATOM     34  O2  <0> d   1      -0.490   5.961   1.022  0.00  0.00    -0.353 OA
ATOM     35  C8  <0> d   1      -1.810   6.495   1.139  0.00  0.00     0.210 C 
ENDBRANCH  30  34
ENDBRANCH   1  26
TORSDOF 10
