REMARK  5 active torsions:
REMARK  status: ('A' for Active; 'I' for Inactive)
REMARK    1  A    between atoms: O1_2  and  C2_3 
REMARK    2  A    between atoms: C5_6  and  O6_28 
REMARK    3  A    between atoms: C6_7  and  C8_9 
REMARK    4  A    between atoms: C15_17  and  C17_20 
REMARK    5  A    between atoms: C17_20  and  N1_21 
ROOT
ATOM      1  C8  <0> d   1      -1.384   4.659   0.039  0.00  0.00     0.055 C 
ATOM      2  C9  <0> d   1      -0.593   3.587  -0.224  0.00  0.00     0.128 A 
ATOM      3  C10 <0> d   1       0.877   3.582  -0.260  0.00  0.00     0.218 A 
ATOM      4  O2  <0> d   1       1.631   4.519  -0.066  0.00  0.00    -0.284 OA
ATOM      5  C11 <0> d   1       1.233   2.189  -0.586  0.00  0.00     0.051 A 
ATOM      6  C12 <0> d   1       2.452   1.533  -0.765  0.00  0.00     0.021 A 
ATOM      7  C13 <0> d   1       2.469   0.201  -1.069  0.00  0.00     0.041 A 
ATOM      8  C14 <0> d   1       1.275  -0.502  -1.200  0.00  0.00     0.118 A 
ATOM      9  C15 <0> d   1       0.058   0.136  -1.025  0.00  0.00     0.041 A 
ATOM     10  C16 <0> d   1       0.022   1.490  -0.716  0.00  0.00     0.101 A 
ATOM     11  O3  <0> d   1      -1.013   2.332  -0.504  0.00  0.00    -0.305 OA
ATOM     12  O5  <0> d   1       1.303  -1.825  -1.502  0.00  0.00    -0.191 OA
ENDROOT
BRANCH   1  13
ATOM     13  C6  <0> d   1      -2.843   4.535  -0.059  0.00  0.00     0.003 A 
ATOM     14  C5  <0> d   1      -3.645   5.683  -0.158  0.00  0.00     0.078 A 
ATOM     15  C4  <0> d   1      -5.022   5.556  -0.250  0.00  0.00     0.040 A 
ATOM     16  C3  <0> d   1      -5.605   4.304  -0.244  0.00  0.00     0.039 A 
ATOM     17  C2  <0> d   1      -4.818   3.162  -0.147  0.00  0.00     0.069 A 
ATOM     18  C7  <0> d   1      -3.444   3.269  -0.060  0.00  0.00     0.051 A 
BRANCH  14  19
ATOM     19  O6  <0> d   1      -3.073   6.915  -0.163  0.00  0.00    -0.355 OA
ATOM     20  C22 <0> d   1      -3.952   8.037  -0.266  0.00  0.00     0.210 C 
ENDBRANCH  14  19
BRANCH  17  21
ATOM     21  O1  <0> d   1      -5.403   1.934  -0.144  0.00  0.00    -0.356 OA
ATOM     22  C1  <0> d   1      -6.828   1.894  -0.242  0.00  0.00     0.210 C 
ENDBRANCH  17  21
ENDBRANCH   1  13
BRANCH   9  23
ATOM     23  C17 <0> d   1      -1.227  -0.638  -1.170  0.00  0.00     0.317 C 
BRANCH  23  24
ATOM     24  N1  <0> d   1      -1.677  -0.582  -2.567  0.00  0.00     0.097 N 
ATOM     25  C21 <0> d   1      -2.790  -1.514  -2.800  0.00  0.00     0.299 C 
ATOM     26  C20 <0> d   1      -3.188  -1.467  -4.277  0.00  0.00     0.198 C 
ATOM     27  O4  <0> d   1      -3.523  -0.123  -4.633  0.00  0.00    -0.388 OA
ATOM     28  C19 <0> d   1      -2.462   0.812  -4.420  0.00  0.00     0.198 C 
ATOM     29  C18 <0> d   1      -2.057   0.788  -2.944  0.00  0.00     0.299 C 
ENDBRANCH  23  24
ENDBRANCH   9  23
TORSDOF 5
