REMARK  7 active torsions:
REMARK  status: ('A' for Active; 'I' for Inactive)
REMARK    1  A    between atoms: C2_2  and  N1_3 
REMARK    2  A    between atoms: C4_5  and  C11_12 
REMARK    3  A    between atoms: C17_19  and  O3_33 
REMARK    4  A    between atoms: C18_20  and  C20_23 
REMARK    5  A    between atoms: C20_23  and  N2_24 
REMARK    6  A    between atoms: N2_24  and  C22_26 
REMARK    7  A    between atoms: C22_26  and  C23_27 
ROOT
ATOM      1  C11 <0> d   1      -2.533   1.389   0.021  0.00  0.00     0.055 C 
ATOM      2  C12 <0> d   1      -2.801   0.053   0.016  0.00  0.00     0.128 A 
ATOM      3  C13 <0> d   1      -4.095  -0.534   0.025  0.00  0.00     0.218 A 
ATOM      4  O1  <0> d   1      -5.170   0.042   0.039  0.00  0.00    -0.284 OA
ATOM      5  C14 <0> d   1      -3.859  -1.988   0.011  0.00  0.00     0.051 A 
ATOM      6  C15 <0> d   1      -4.703  -3.099   0.010  0.00  0.00     0.021 A 
ATOM      7  C16 <0> d   1      -4.171  -4.357   0.003  0.00  0.00     0.038 A 
ATOM      8  C17 <0> d   1      -2.790  -4.535  -0.004  0.00  0.00     0.076 A 
ATOM      9  C18 <0> d   1      -1.940  -3.442  -0.003  0.00  0.00     0.035 A 
ATOM     10  C19 <0> d   1      -2.464  -2.156   0.005  0.00  0.00     0.101 A 
ATOM     11  O2  <0> d   1      -1.879  -0.939   0.008  0.00  0.00    -0.305 OA
ENDROOT
BRANCH   1  12
ATOM     12  C4  <0> d   1      -1.149   1.856   0.017  0.00  0.00    -0.005 A 
ATOM     13  C3  <0> d   1      -0.013   1.076   0.008  0.00  0.00     0.103 A 
ATOM     14  N1  <0> d   1       1.084   1.873   0.002  0.00  0.00    -0.356 N 
ATOM     15  C6  <0> d   1       0.715   3.204   0.012  0.00  0.00     0.045 A 
ATOM     16  C5  <0> d   1      -0.688   3.258   0.025  0.00  0.00     0.002 A 
ATOM     17  C7  <0> d   1       1.443   4.389   0.010  0.00  0.00     0.030 A 
ATOM     18  C10 <0> d   1      -1.339   4.488   0.036  0.00  0.00     0.014 A 
ATOM     19  C9  <0> d   1      -0.601   5.652   0.034  0.00  0.00     0.001 A 
ATOM     20  C8  <0> d   1       0.785   5.600   0.022  0.00  0.00     0.002 A 
BRANCH  14  21
ATOM     21  C2  <0> d   1       2.467   1.391  -0.013  0.00  0.00     0.124 C 
ATOM     22  C1  <0> d   1       3.003   1.334   1.419  0.00  0.00     0.027 C 
ENDBRANCH  14  21
ENDBRANCH   1  12
BRANCH   9  23
ATOM     23  C20 <0> d   1      -0.447  -3.647  -0.009  0.00  0.00     0.279 C 
BRANCH  23  24
ATOM     24  N2  <0> d   1       0.043  -3.721   1.374  0.00  0.00    -0.067 N 
ATOM     25  C21 <0> d   1      -0.129  -2.435   2.062  0.00  0.00     0.270 C 
ATOM     26  H26 <0> d   1      -0.558  -4.472   1.906  0.00  0.00     0.280 HD
BRANCH  24  27
ATOM     27  C22 <0> d   1       1.446  -4.155   1.413  0.00  0.00     0.273 C 
BRANCH  27  28
ATOM     28  C23 <0> d   1       1.840  -4.454   2.836  0.00  0.00    -0.033 A 
ATOM     29  C28 <0> d   1       1.673  -5.728   3.346  0.00  0.00     0.009 A 
ATOM     30  C27 <0> d   1       2.034  -6.003   4.652  0.00  0.00     0.001 A 
ATOM     31  C26 <0> d   1       2.563  -5.004   5.447  0.00  0.00     0.000 A 
ATOM     32  C25 <0> d   1       2.731  -3.730   4.937  0.00  0.00     0.001 A 
ATOM     33  C24 <0> d   1       2.373  -3.456   3.630  0.00  0.00     0.009 A 
ENDBRANCH  27  28
ENDBRANCH  24  27
ENDBRANCH  23  24
ENDBRANCH   9  23
BRANCH   8  34
ATOM     34  O3  <0> d   1      -2.273  -5.790  -0.012  0.00  0.00    -0.360 OA
ATOM     35  H27 <0> d   1      -1.183  -5.936  -0.017  0.00  0.00     0.217 HD
ENDBRANCH   8  34
TORSDOF 7
