REMARK  7 active torsions:
REMARK  status: ('A' for Active; 'I' for Inactive)
REMARK    1  A    between atoms: C2_2  and  N1_3 
REMARK    2  A    between atoms: N2_6  and  C7_9 
REMARK    3  A    between atoms: C7_9  and  C8_10 
REMARK    4  A    between atoms: C9_11  and  O5_32 
REMARK    5  A    between atoms: C15_18  and  C17_21 
REMARK    6  A    between atoms: C20_24  and  O4_29 
REMARK    7  A    between atoms: C21_25  and  O3_27 
ROOT
ATOM      1  C8  <0> d   1      -4.931  -4.100  -0.816  0.00  0.00     0.035 A 
ATOM      2  C9  <0> d   1      -4.954  -4.862  -1.972  0.00  0.00     0.076 A 
ATOM      3  C10 <0> d   1      -4.965  -6.253  -1.906  0.00  0.00     0.038 A 
ATOM      4  C11 <0> d   1      -4.950  -6.886  -0.695  0.00  0.00     0.021 A 
ATOM      5  C12 <0> d   1      -4.925  -6.132   0.478  0.00  0.00     0.050 A 
ATOM      6  C13 <0> d   1      -4.913  -4.726   0.424  0.00  0.00     0.100 A 
ATOM      7  O1  <0> d   1      -4.898  -4.002   1.559  0.00  0.00    -0.313 OA
ATOM      8  C14 <0> d   1      -4.587  -4.548   2.737  0.00  0.00     0.065 C 
ATOM      9  C15 <0> d   1      -4.567  -5.891   2.943  0.00  0.00     0.055 C 
ATOM     10  C16 <0> d   1      -4.900  -6.774   1.806  0.00  0.00     0.198 C 
ATOM     11  O2  <0> d   1      -5.125  -7.963   1.953  0.00  0.00    -0.286 OA
ATOM     12  C25 <0> d   1      -4.244  -3.636   3.887  0.00  0.00     0.077 C 
ENDROOT
BRANCH   1  13
ATOM     13  C7  <0> d   1      -4.919  -2.596  -0.902  0.00  0.00     0.279 C 
BRANCH  13  14
ATOM     14  N2  <0> d   1      -3.530  -2.119  -0.956  0.00  0.00    -0.064 N 
ATOM     15  C4  <0> d   1      -3.519  -0.665  -1.160  0.00  0.00     0.265 C 
ATOM     16  C3  <0> d   1      -2.073  -0.171  -1.236  0.00  0.00     0.300 C 
ATOM     17  N1  <0> d   1      -1.376  -0.512   0.012  0.00  0.00     0.091 N 
ATOM     18  C6  <0> d   1      -1.400  -1.964   0.243  0.00  0.00     0.300 C 
ATOM     19  C5  <0> d   1      -2.852  -2.443   0.306  0.00  0.00     0.265 C 
ATOM     20  H31 <0> d   1      -3.050  -2.570  -1.721  0.00  0.00     0.280 HD
BRANCH  17  21
ATOM     21  C2  <0> d   1       0.002  -0.004   0.002  0.00  0.00     0.268 C 
ATOM     22  C1  <0> d   1      -0.019   1.526   0.010  0.00  0.00     0.037 C 
ENDBRANCH  17  21
ENDBRANCH  13  14
ENDBRANCH   1  13
BRANCH   2  23
ATOM     23  O5  <0> d   1      -4.966  -4.246  -3.182  0.00  0.00    -0.360 OA
ATOM     24  H30 <0> d   1      -4.086  -4.075  -3.545  0.00  0.00     0.217 HD
ENDBRANCH   2  23
BRANCH   9  25
ATOM     25  C17 <0> d   1      -4.233  -6.453   4.274  0.00  0.00    -0.017 A 
ATOM     26  C22 <0> d   1      -5.193  -7.162   4.993  0.00  0.00     0.052 A 
ATOM     27  C21 <0> d   1      -4.875  -7.691   6.232  0.00  0.00     0.102 A 
ATOM     28  C20 <0> d   1      -3.602  -7.502   6.763  0.00  0.00     0.101 A 
ATOM     29  C19 <0> d   1      -2.649  -6.790   6.049  0.00  0.00     0.040 A 
ATOM     30  C18 <0> d   1      -2.960  -6.267   4.810  0.00  0.00     0.015 A 
BRANCH  27  31
ATOM     31  O3  <0> d   1      -5.807  -8.389   6.933  0.00  0.00    -0.353 OA
ATOM     32  C23 <0> d   1      -7.092  -8.544   6.327  0.00  0.00     0.210 C 
ENDBRANCH  27  31
BRANCH  28  33
ATOM     33  O4  <0> d   1      -3.292  -8.016   7.983  0.00  0.00    -0.353 OA
ATOM     34  C24 <0> d   1      -1.967  -7.785   8.467  0.00  0.00     0.210 C 
ENDBRANCH  28  33
ENDBRANCH   9  25
TORSDOF 7
