REMARK  7 active torsions:
REMARK  status: ('A' for Active; 'I' for Inactive)
REMARK    1  A    between atoms: C2_2  and  C3_3 
REMARK    2  A    between atoms: C6_6  and  C12_15 
REMARK    3  A    between atoms: C11_13  and  O3_14 
REMARK    4  A    between atoms: C12_15  and  N1_16 
REMARK    5  A    between atoms: N2_19  and  C17_22 
REMARK    6  A    between atoms: C17_22  and  C18_23 
REMARK    7  A    between atoms: C19_24  and  C20_25 
ROOT
ATOM      1  N1  <0> d   1      -0.701   1.560   1.216  0.00  0.00    -0.064 N 
ATOM      2  C13 <0> d   1      -0.013   1.086   0.008  0.00  0.00     0.265 C 
ATOM      3  C14 <0> d   1      -0.754   1.593  -1.231  0.00  0.00     0.300 C 
ATOM      4  N2  <0> d   1      -0.806   3.062  -1.200  0.00  0.00     0.095 N 
ATOM      5  C15 <0> d   1      -1.495   3.536   0.008  0.00  0.00     0.300 C 
ATOM      6  C16 <0> d   1      -0.754   3.029   1.247  0.00  0.00     0.265 C 
ATOM      7  H29 <0> d   1      -1.735   1.184   1.189  0.00  0.00     0.280 HD
ENDROOT
BRANCH   1   8
ATOM      8  C12 <0> d   1      -0.062   1.031   2.429  0.00  0.00     0.274 C 
BRANCH   8   9
ATOM      9  C6  <0> d   1      -0.631   1.724   3.640  0.00  0.00    -0.014 A 
ATOM     10  C5  <0> d   1      -1.923   1.321   4.199  0.00  0.00     0.007 A 
ATOM     11  C4  <0> d   1      -2.665   0.282   3.626  0.00  0.00     0.024 A 
ATOM     12  C9  <0> d   1      -2.416   1.996   5.332  0.00  0.00     0.093 A 
ATOM     13  C3  <0> d   1      -3.866  -0.073   4.168  0.00  0.00    -0.024 A 
ATOM     14  C11 <0> d   1      -4.359   0.591   5.289  0.00  0.00     0.074 A 
ATOM     15  C10 <0> d   1      -3.638   1.621   5.870  0.00  0.00     0.075 A 
ATOM     16  O2  <0> d   1      -1.697   2.997   5.884  0.00  0.00    -0.275 OA
ATOM     17  C8  <0> d   1      -0.512   3.370   5.376  0.00  0.00     0.288 A 
ATOM     18  C7  <0> d   1       0.043   2.735   4.246  0.00  0.00     0.092 A 
ATOM     19  O1  <0> d   1       0.101   4.279   5.907  0.00  0.00    -0.260 OA
BRANCH  13  20
ATOM     20  C2  <0> d   1      -4.664  -1.192   3.550  0.00  0.00     0.037 C 
ATOM     21  C1  <0> d   1      -4.455  -2.474   4.358  0.00  0.00     0.010 C 
ENDBRANCH  13  20
BRANCH  14  22
ATOM     22  O3  <0> d   1      -5.555   0.226   5.816  0.00  0.00    -0.360 OA
ATOM     23  H9  <0> d   1      -5.948   0.748   6.701  0.00  0.00     0.217 HD
ENDBRANCH  14  22
ENDBRANCH   8   9
ENDBRANCH   1   8
BRANCH   4  24
ATOM     24  C17 <0> d   1      -1.445   3.591  -2.413  0.00  0.00     0.300 C 
BRANCH  24  25
ATOM     25  C18 <0> d   1      -1.263   5.086  -2.464  0.00  0.00     0.004 C 
ATOM     26  C19 <0> d   1      -0.710   5.651  -3.529  0.00  0.00     0.009 C 
BRANCH  26  27
ATOM     27  C20 <0> d   1      -0.532   7.117  -3.579  0.00  0.00    -0.036 A 
ATOM     28  C25 <0> d   1       0.050   7.714  -4.698  0.00  0.00     0.011 A 
ATOM     29  C24 <0> d   1       0.213   9.084  -4.739  0.00  0.00     0.001 A 
ATOM     30  C23 <0> d   1      -0.199   9.864  -3.673  0.00  0.00     0.000 A 
ATOM     31  C22 <0> d   1      -0.775   9.278  -2.561  0.00  0.00     0.001 A 
ATOM     32  C21 <0> d   1      -0.950   7.911  -2.510  0.00  0.00     0.011 A 
ENDBRANCH  26  27
ENDBRANCH  24  25
ENDBRANCH   4  24
TORSDOF 7
