REMARK  5 active torsions:
REMARK  status: ('A' for Active; 'I' for Inactive)
REMARK    1  A    between atoms: C2_2  and  N1_3 
REMARK    2  A    between atoms: N2_6  and  C7_9 
REMARK    3  A    between atoms: C7_9  and  C8_10 
REMARK    4  A    between atoms: C9_11  and  O3_28 
REMARK    5  A    between atoms: C15_19  and  C17_21 
ROOT
ATOM      1  C8  <0> d   1       2.396   1.421  -0.014  0.00  0.00     0.038 A 
ATOM      2  C9  <0> d   1       2.394   0.036  -0.021  0.00  0.00     0.076 A 
ATOM      3  C10 <0> d   1       1.193  -0.669  -0.013  0.00  0.00     0.038 A 
ATOM      4  C11 <0> d   1       0.002  -0.004   0.002  0.00  0.00     0.017 A 
ATOM      5  C12 <0> d   1      -0.017   1.399   0.010  0.00  0.00    -0.000 A 
ATOM      6  C13 <0> d   1       1.194   2.115   0.002  0.00  0.00     0.100 A 
ATOM      7  O1  <0> d   1       1.196   3.466   0.009  0.00  0.00    -0.273 OA
ATOM      8  C14 <0> d   1       0.047   4.163   0.023  0.00  0.00     0.299 A 
ATOM      9  O2  <0> d   1       0.076   5.380   0.029  0.00  0.00    -0.259 OA
ATOM     10  C15 <0> d   1      -1.240   3.464   0.033  0.00  0.00     0.051 A 
ATOM     11  C16 <0> d   1      -1.252   2.095   0.031  0.00  0.00     0.032 A 
ENDROOT
BRANCH   1  12
ATOM     12  C7  <0> d   1       3.701   2.175  -0.023  0.00  0.00     0.317 C 
BRANCH  12  13
ATOM     13  N2  <0> d   1       4.111   2.427  -1.411  0.00  0.00     0.096 N 
ATOM     14  C4  <0> d   1       5.247   3.357  -1.464  0.00  0.00     0.303 C 
ATOM     15  C3  <0> d   1       5.591   3.655  -2.925  0.00  0.00     0.302 C 
ATOM     16  N1  <0> d   1       5.912   2.398  -3.616  0.00  0.00     0.091 N 
ATOM     17  C6  <0> d   1       4.776   1.468  -3.563  0.00  0.00     0.302 C 
ATOM     18  C5  <0> d   1       4.431   1.170  -2.102  0.00  0.00     0.303 C 
BRANCH  16  19
ATOM     19  C2  <0> d   1       6.322   2.651  -5.004  0.00  0.00     0.268 C 
ATOM     20  C1  <0> d   1       6.881   1.363  -5.612  0.00  0.00     0.037 C 
ENDBRANCH  16  19
ENDBRANCH  12  13
ENDBRANCH   1  12
BRANCH   2  21
ATOM     21  O3  <0> d   1       3.572  -0.639  -0.036  0.00  0.00    -0.360 OA
ATOM     22  H23 <0> d   1       3.575  -1.739  -0.042  0.00  0.00     0.217 HD
ENDBRANCH   2  21
BRANCH  10  23
ATOM     23  C17 <0> d   1      -2.510   4.227   0.049  0.00  0.00    -0.020 A 
ATOM     24  C22 <0> d   1      -2.702   5.247   0.980  0.00  0.00     0.014 A 
ATOM     25  C21 <0> d   1      -3.886   5.955   0.991  0.00  0.00     0.024 A 
ATOM     26  C20 <0> d   1      -4.884   5.653   0.079  0.00  0.00     0.034 A 
ATOM     27  C19 <0> d   1      -4.699   4.641  -0.847  0.00  0.00     0.024 A 
ATOM     28 Cl1  <0> d   1      -6.372   6.547   0.098  0.00  0.00    -0.084 Cl
ATOM     29  C18 <0> d   1      -3.516   3.931  -0.871  0.00  0.00     0.014 A 
ENDBRANCH  10  23
TORSDOF 5
