REMARK  4 active torsions:
REMARK  status: ('A' for Active; 'I' for Inactive)
REMARK    1  A    between atoms: C6_6  and  C12_14 
REMARK    2  A    between atoms: C12_14  and  N1_15 
REMARK    3  A    between atoms: N2_18  and  C17_21 
REMARK    4  A    between atoms: C17_21  and  C18_22 
ROOT
ATOM      1  C12 <0> d   1       0.066  -5.012  -1.320  0.00  0.00     0.312 C 
ENDROOT
BRANCH   1   2
ATOM      2  C6  <0> d   1       0.061  -4.234  -0.030  0.00  0.00    -0.011 A 
ATOM      3  C5  <0> d   1       0.040  -2.768  -0.035  0.00  0.00     0.007 A 
ATOM      4  C4  <0> d   1       0.025  -2.050  -1.235  0.00  0.00     0.015 A 
ATOM      5  C9  <0> d   1       0.037  -2.082   1.193  0.00  0.00     0.096 A 
ATOM      6  C3  <0> d   1       0.006  -0.684  -1.207  0.00  0.00     0.008 A 
ATOM      7  C2  <0> d   1       0.002  -0.004   0.002  0.00  0.00    -0.053 A 
ATOM      8  C1  <0> d   1      -0.018   1.503   0.010  0.00  0.00     0.049 C 
ATOM      9  C10 <0> d   1       0.023  -0.693   1.196  0.00  0.00    -0.021 A 
ATOM     10  C11 <0> d   1       0.025   0.059   2.502  0.00  0.00     0.052 C 
ATOM     11  O2  <0> d   1       0.053  -2.776   2.350  0.00  0.00    -0.274 OA
ATOM     12  C8  <0> d   1       0.072  -4.118   2.363  0.00  0.00     0.288 A 
ATOM     13  C7  <0> d   1       0.077  -4.870   1.169  0.00  0.00     0.092 A 
ATOM     14  O1  <0> d   1       0.086  -4.701   3.432  0.00  0.00    -0.260 OA
ENDBRANCH   1   2
BRANCH   1  15
ATOM     15  N1  <0> d   1      -1.315  -5.181  -1.794  0.00  0.00     0.096 N 
ATOM     16  C16 <0> d   1      -1.339  -5.724  -3.160  0.00  0.00     0.303 C 
ATOM     17  C15 <0> d   1      -2.788  -5.810  -3.645  0.00  0.00     0.303 C 
ATOM     18  N2  <0> d   1      -3.559  -6.662  -2.729  0.00  0.00     0.096 N 
ATOM     19  C14 <0> d   1      -3.534  -6.120  -1.364  0.00  0.00     0.303 C 
ATOM     20  C13 <0> d   1      -2.085  -6.034  -0.878  0.00  0.00     0.303 C 
BRANCH  18  21
ATOM     21  C17 <0> d   1      -4.939  -6.832  -3.203  0.00  0.00     0.311 C 
BRANCH  21  22
ATOM     22  C18 <0> d   1      -4.935  -7.610  -4.494  0.00  0.00    -0.030 A 
ATOM     23  C23 <0> d   1      -5.019  -8.990  -4.469  0.00  0.00     0.009 A 
ATOM     24  C22 <0> d   1      -5.020  -9.703  -5.653  0.00  0.00     0.001 A 
ATOM     25  C21 <0> d   1      -4.927  -9.038  -6.861  0.00  0.00     0.000 A 
ATOM     26  C20 <0> d   1      -4.837  -7.659  -6.886  0.00  0.00     0.001 A 
ATOM     27  C19 <0> d   1      -4.841  -6.945  -5.702  0.00  0.00     0.009 A 
ENDBRANCH  21  22
ENDBRANCH  18  21
ENDBRANCH   1  15
TORSDOF 4
