REMARK  4 active torsions:
REMARK  status: ('A' for Active; 'I' for Inactive)
REMARK    1  A    between atoms: N2_5  and  C6_8 
REMARK    2  A    between atoms: C6_8  and  C7_9 
REMARK    3  A    between atoms: C8_10  and  O3_29 
REMARK    4  A    between atoms: C14_18  and  C16_20 
ROOT
ATOM      1  C7  <0> d   1      -0.631   1.724   3.640  0.00  0.00     0.035 A 
ATOM      2  C8  <0> d   1      -0.038   2.880   4.119  0.00  0.00     0.076 A 
ATOM      3  C9  <0> d   1      -0.560   3.532   5.235  0.00  0.00     0.038 A 
ATOM      4  C10 <0> d   1      -1.654   3.033   5.877  0.00  0.00     0.017 A 
ATOM      5  C11 <0> d   1      -2.266   1.859   5.410  0.00  0.00    -0.000 A 
ATOM      6  C12 <0> d   1      -1.746   1.201   4.279  0.00  0.00     0.100 A 
ATOM      7  O1  <0> d   1      -2.319   0.069   3.814  0.00  0.00    -0.273 OA
ATOM      8  C13 <0> d   1      -3.399  -0.464   4.409  0.00  0.00     0.301 A 
ATOM      9  O2  <0> d   1      -3.893  -1.485   3.966  0.00  0.00    -0.259 OA
ATOM     10  C14 <0> d   1      -3.984   0.180   5.589  0.00  0.00     0.076 A 
ATOM     11  C15 <0> d   1      -3.404   1.338   6.073  0.00  0.00     0.034 A 
ENDROOT
BRANCH   1  12
ATOM     12  C6  <0> d   1      -0.062   1.031   2.429  0.00  0.00     0.279 C 
BRANCH  12  13
ATOM     13  N2  <0> d   1      -0.701   1.560   1.216  0.00  0.00    -0.064 N 
ATOM     14  C3  <0> d   1      -0.013   1.086   0.008  0.00  0.00     0.265 C 
ATOM     15  C2  <0> d   1      -0.754   1.593  -1.231  0.00  0.00     0.299 C 
ATOM     16  N1  <0> d   1      -0.806   3.062  -1.200  0.00  0.00     0.087 N 
ATOM     17  C1  <0> d   1      -1.445   3.591  -2.413  0.00  0.00     0.310 C 
ATOM     18  C5  <0> d   1      -1.495   3.536   0.008  0.00  0.00     0.299 C 
ATOM     19  C4  <0> d   1      -0.754   3.029   1.247  0.00  0.00     0.265 C 
ATOM     20  H22 <0> d   1      -1.735   1.184   1.189  0.00  0.00     0.280 HD
ENDBRANCH  12  13
ENDBRANCH   1  12
BRANCH   2  21
ATOM     21  O3  <0> d   1       1.056   3.385   3.494  0.00  0.00    -0.360 OA
ATOM     22  H21 <0> d   1       1.530   4.303   3.871  0.00  0.00     0.217 HD
ENDBRANCH   2  21
BRANCH  10  23
ATOM     23  C16 <0> d   1      -5.169  -0.398   6.249  0.00  0.00     0.115 A 
ATOM     24  S1  <0> d   1      -6.050   0.190   7.689  0.00  0.00    -0.067 SA
ATOM     25  C22 <0> d   1      -7.281  -1.089   7.736  0.00  0.00     0.035 A 
ATOM     26  C17 <0> d   1      -6.920  -1.896   6.631  0.00  0.00     0.075 A 
ATOM     27  C21 <0> d   1      -8.351  -1.381   8.545  0.00  0.00     0.021 A 
ATOM     28  N3  <0> d   1      -5.845  -1.482   5.931  0.00  0.00    -0.239 NA
ATOM     29  C18 <0> d   1      -7.729  -3.034   6.398  0.00  0.00     0.033 A 
ATOM     30  C19 <0> d   1      -8.787  -3.314   7.206  0.00  0.00     0.002 A 
ATOM     31  C20 <0> d   1      -9.116  -2.503   8.283  0.00  0.00     0.002 A 
ENDBRANCH  10  23
TORSDOF 4
