REMARK  3 active torsions:
REMARK  status: ('A' for Active; 'I' for Inactive)
REMARK    1  A    between atoms: C5_5  and  C17_20 
REMARK    2  A    between atoms: C10_11  and  C11_12 
REMARK    3  A    between atoms: C17_20  and  N1_21 
ROOT
ATOM      1  C1  <0> d   1       3.823   2.637   2.513  0.00  0.00     0.049 C 
ATOM      2  C2  <0> d   1       3.136   2.324   1.209  0.00  0.00    -0.042 A 
ATOM      3  C3  <0> d   1       1.903   1.734   1.209  0.00  0.00     0.048 A 
ATOM      4  C4  <0> d   1       1.269   1.440   0.005  0.00  0.00     0.118 A 
ATOM      5  C5  <0> d   1       1.872   1.750  -1.203  0.00  0.00     0.041 A 
ATOM      6  C6  <0> d   1       3.122   2.354  -1.221  0.00  0.00     0.102 A 
ATOM      7  C7  <0> d   1       3.755   2.641  -0.001  0.00  0.00     0.057 A 
ATOM      8  C8  <0> d   1       5.045   3.269  -0.339  0.00  0.00     0.219 A 
ATOM      9  O1  <0> d   1       5.902   3.672   0.428  0.00  0.00    -0.284 OA
ATOM     10  C9  <0> d   1       5.065   3.301  -1.810  0.00  0.00     0.128 A 
ATOM     11  C10 <0> d   1       6.061   3.795  -2.587  0.00  0.00     0.053 C 
ATOM     12  O2  <0> d   1       3.909   2.749  -2.246  0.00  0.00    -0.305 OA
ATOM     13  O4  <0> d   1       0.046   0.851   0.016  0.00  0.00    -0.191 OA
ENDROOT
BRANCH  11  14
ATOM     14  C11 <0> d   1       5.991   3.654  -4.048  0.00  0.00    -0.033 A 
ATOM     15  C16 <0> d   1       4.842   3.128  -4.650  0.00  0.00     0.013 A 
ATOM     16  C15 <0> d   1       4.783   3.000  -6.021  0.00  0.00     0.024 A 
ATOM     17  C14 <0> d   1       5.858   3.390  -6.803  0.00  0.00     0.034 A 
ATOM     18  C13 <0> d   1       6.999   3.912  -6.215  0.00  0.00     0.024 A 
ATOM     19 Cl1  <0> d   1       5.775   3.225  -8.529  0.00  0.00    -0.084 Cl
ATOM     20  C12 <0> d   1       7.070   4.052  -4.846  0.00  0.00     0.013 A 
ENDBRANCH  11  14
BRANCH   5  21
ATOM     21  C17 <0> d   1       1.171   1.431  -2.499  0.00  0.00     0.317 C 
BRANCH  21  22
ATOM     22  N1  <0> d   1       0.341   2.574  -2.901  0.00  0.00     0.097 N 
ATOM     23  C21 <0> d   1      -0.170   2.399  -4.268  0.00  0.00     0.299 C 
ATOM     24  C20 <0> d   1      -0.978   3.637  -4.668  0.00  0.00     0.198 C 
ATOM     25  O3  <0> d   1      -2.028   3.841  -3.719  0.00  0.00    -0.388 OA
ATOM     26  C19 <0> d   1      -1.566   4.016  -2.377  0.00  0.00     0.198 C 
ATOM     27  C18 <0> d   1      -0.765   2.782  -1.954  0.00  0.00     0.299 C 
ENDBRANCH  21  22
ENDBRANCH   5  21
TORSDOF 3
