REMARK  4 active torsions:
REMARK  status: ('A' for Active; 'I' for Inactive)
REMARK    1  A    between atoms: O1_2  and  C2_3 
REMARK    2  A    between atoms: C7_8  and  C8_9 
REMARK    3  A    between atoms: C10_11  and  O2_12 
REMARK    4  A    between atoms: C14_16  and  N1_20 
ROOT
ATOM      1  C8  <0> d   1       1.154   1.777   0.001  0.00  0.00     0.091 A 
ATOM      2  C9  <0> d   1      -0.013   1.076   0.008  0.00  0.00     0.075 A 
ATOM      3  C10 <0> d   1      -1.244   1.771   0.018  0.00  0.00     0.081 A 
ATOM      4  C11 <0> d   1      -1.191   3.244   0.031  0.00  0.00     0.031 A 
ATOM      5  C12 <0> d   1      -2.357   4.011   0.046  0.00  0.00     0.019 A 
ATOM      6  C13 <0> d   1      -2.274   5.373   0.052  0.00  0.00     0.030 A 
ATOM      7  C14 <0> d   1      -1.028   6.003   0.043  0.00  0.00     0.028 A 
ATOM      8  C15 <0> d   1       0.139   5.254   0.029  0.00  0.00     0.067 A 
ATOM      9  C16 <0> d   1       0.068   3.869   0.022  0.00  0.00     0.091 A 
ATOM     10  O3  <0> d   1       1.190   3.119   0.007  0.00  0.00    -0.309 OA
ENDROOT
BRANCH   1  11
ATOM     11  C7  <0> d   1       2.428   1.034  -0.015  0.00  0.00     0.031 A 
ATOM     12  C2  <0> d   1       3.420   1.356  -0.951  0.00  0.00     0.081 A 
ATOM     13  C3  <0> d   1       4.614   0.651  -0.956  0.00  0.00     0.038 A 
ATOM     14  C4  <0> d   1       4.823  -0.363  -0.043  0.00  0.00     0.003 A 
ATOM     15  C5  <0> d   1       3.845  -0.685   0.884  0.00  0.00     0.001 A 
ATOM     16  C6  <0> d   1       2.654   0.009   0.907  0.00  0.00     0.017 A 
BRANCH  12  17
ATOM     17  O1  <0> d   1       3.214   2.354  -1.848  0.00  0.00    -0.355 OA
ATOM     18  C1  <0> d   1       4.270   2.626  -2.771  0.00  0.00     0.210 C 
ENDBRANCH  12  17
ENDBRANCH   1  11
BRANCH   3  19
ATOM     19  O2  <0> d   1      -2.309   1.175   0.019  0.00  0.00    -0.360 OA
ATOM     20  H14 <0> d   1      -3.254   1.737   0.027  0.00  0.00     0.217 HD
ENDBRANCH   3  19
BRANCH   7  21
ATOM     21  N1  <0> d   1      -0.957   7.393   0.049  0.00  0.00    -0.399 N 
ATOM     22  H12 <0> d   1       0.022   7.894   0.042  0.00  0.00     0.156 HD
ATOM     23  H13 <0> d   1      -1.881   7.991   0.060  0.00  0.00     0.156 HD
ENDBRANCH   7  21
TORSDOF 4
