REMARK  4 active torsions:
REMARK  status: ('A' for Active; 'I' for Inactive)
REMARK    1  A    between atoms: C4_5  and  N2_7 
REMARK    2  A    between atoms: N3_10  and  C10_13 
REMARK    3  A    between atoms: C10_13  and  C11_14 
REMARK    4  A    between atoms: C17_22  and  O3_25 
ROOT
ATOM      1  C11 <0> d   1       0.244  -6.735  -1.667  0.00  0.00    -0.011 A 
ATOM      2  C12 <0> d   1      -0.963  -6.663  -2.283  0.00  0.00     0.092 A 
ATOM      3  C13 <0> d   1      -1.974  -7.593  -1.956  0.00  0.00     0.288 A 
ATOM      4  O1  <0> d   1      -3.053  -7.517  -2.516  0.00  0.00    -0.260 OA
ATOM      5  O2  <0> d   1      -1.776  -8.557  -1.046  0.00  0.00    -0.275 OA
ATOM      6  C14 <0> d   1      -0.599  -8.685  -0.396  0.00  0.00     0.090 A 
ATOM      7  C15 <0> d   1       0.454  -7.795  -0.676  0.00  0.00     0.009 A 
ATOM      8  C16 <0> d   1       1.676  -7.926  -0.010  0.00  0.00     0.051 A 
ATOM      9  C17 <0> d   1       1.841  -8.935   0.919  0.00  0.00     0.066 A 
ATOM     10  C18 <0> d   1       0.798  -9.817   1.189  0.00  0.00     0.039 A 
ATOM     11  C19 <0> d   1      -0.413  -9.690   0.544  0.00  0.00     0.041 A 
ENDROOT
BRANCH   1  12
ATOM     12  C10 <0> d   1       1.341  -5.756  -1.996  0.00  0.00     0.312 C 
BRANCH  12  13
ATOM     13  N3  <0> d   1       1.319  -4.651  -1.028  0.00  0.00     0.095 N 
ATOM     14  C7  <0> d   1       2.511  -3.804  -1.169  0.00  0.00     0.292 C 
ATOM     15  C6  <0> d   1       2.541  -2.778  -0.031  0.00  0.00     0.154 C 
ATOM     16  N2  <0> d   1       1.260  -2.054  -0.021  0.00  0.00    -0.362 N 
ATOM     17  C9  <0> d   1       0.017  -2.839  -0.013  0.00  0.00     0.154 C 
ATOM     18  C8  <0> d   1       0.086  -3.863  -1.158  0.00  0.00     0.292 C 
BRANCH  16  19
ATOM     19  C4  <0> d   1       1.227  -0.664  -0.013  0.00  0.00     0.125 A 
ATOM     20  N1  <0> d   1       2.339   0.020  -0.230  0.00  0.00    -0.244 NA
ATOM     21  C3  <0> d   1       2.351   1.340  -0.231  0.00  0.00     0.119 A 
ATOM     22  C2  <0> d   1       1.194   2.058  -0.004  0.00  0.00     0.019 A 
ATOM     23  C1  <0> d   1       0.005   1.378   0.228  0.00  0.00     0.005 A 
ATOM     24  C5  <0> d   1       0.025  -0.005   0.223  0.00  0.00     0.050 A 
ENDBRANCH  16  19
ENDBRANCH  12  13
ENDBRANCH   1  12
BRANCH   9  25
ATOM     25  O3  <0> d   1       3.027  -9.069   1.571  0.00  0.00    -0.361 OA
ATOM     26  H19 <0> d   1       3.080  -8.568   2.397  0.00  0.00     0.217 HD
ENDBRANCH   9  25
TORSDOF 4
