REMARK  6 active torsions:
REMARK  status: ('A' for Active; 'I' for Inactive)
REMARK    1  A    between atoms: C3_3  and  O3_29 
REMARK    2  A    between atoms: C10_12  and  C11_13 
REMARK    3  A    between atoms: C11_13  and  N1_14 
REMARK    4  A    between atoms: N2_17  and  C16_20 
REMARK    5  A    between atoms: C16_20  and  C17_21 
REMARK    6  A    between atoms: C18_22  and  C19_23 
ROOT
ATOM      1  N1  <0> d   1      -1.303  -4.861   2.359  0.00  0.00     0.096 N 
ATOM      2  C12 <0> d   1      -2.090  -4.505   3.548  0.00  0.00     0.303 C 
ATOM      3  C13 <0> d   1      -3.532  -4.983   3.364  0.00  0.00     0.303 C 
ATOM      4  N2  <0> d   1      -3.539  -6.437   3.146  0.00  0.00     0.095 N 
ATOM      5  C14 <0> d   1      -2.752  -6.792   1.957  0.00  0.00     0.303 C 
ATOM      6  C15 <0> d   1      -1.310  -6.314   2.141  0.00  0.00     0.303 C 
ENDROOT
BRANCH   1   7
ATOM      7  C11 <0> d   1       0.071  -4.351   2.466  0.00  0.00     0.312 C 
BRANCH   7   8
ATOM      8  C10 <0> d   1       0.051  -2.845   2.441  0.00  0.00    -0.011 A 
ATOM      9  C6  <0> d   1       0.036  -2.113   1.173  0.00  0.00     0.007 A 
ATOM     10  C5  <0> d   1       0.039  -2.792  -0.051  0.00  0.00     0.017 A 
ATOM     11  C7  <0> d   1       0.023  -0.706   1.198  0.00  0.00     0.099 A 
ATOM     12  C4  <0> d   1       0.024  -2.086  -1.219  0.00  0.00     0.038 A 
ATOM     13  C3  <0> d   1       0.006  -0.693  -1.200  0.00  0.00     0.074 A 
ATOM     14  C2  <0> d   1       0.002  -0.004   0.002  0.00  0.00     0.006 A 
ATOM     15  C1  <0> d   1      -0.018   1.503   0.010  0.00  0.00     0.054 C 
ATOM     16  O1  <0> d   1       0.025  -0.054   2.380  0.00  0.00    -0.274 OA
ATOM     17  C8  <0> d   1       0.045  -0.719   3.546  0.00  0.00     0.288 A 
ATOM     18  O2  <0> d   1       0.046  -0.089   4.588  0.00  0.00    -0.260 OA
ATOM     19  C9  <0> d   1       0.065  -2.128   3.595  0.00  0.00     0.092 A 
BRANCH  13  20
ATOM     20  O3  <0> d   1      -0.009  -0.004  -2.370  0.00  0.00    -0.360 OA
ATOM     21  H26 <0> d   1       0.870   0.207  -2.713  0.00  0.00     0.217 HD
ENDBRANCH  13  20
ENDBRANCH   7   8
ENDBRANCH   1   7
BRANCH   4  22
ATOM     22  C16 <0> d   1      -4.913  -6.946   3.040  0.00  0.00     0.300 C 
BRANCH  22  23
ATOM     23  C17 <0> d   1      -4.894  -8.453   3.064  0.00  0.00     0.004 C 
ATOM     24  C18 <0> d   1      -5.619  -9.111   3.957  0.00  0.00     0.009 C 
BRANCH  24  25
ATOM     25  C19 <0> d   1      -5.600 -10.588   3.981  0.00  0.00    -0.036 A 
ATOM     26  C24 <0> d   1      -6.362 -11.284   4.920  0.00  0.00     0.011 A 
ATOM     27  C23 <0> d   1      -6.345 -12.664   4.933  0.00  0.00     0.001 A 
ATOM     28  C22 <0> d   1      -5.564 -13.357   4.026  0.00  0.00     0.000 A 
ATOM     29  C21 <0> d   1      -4.801 -12.673   3.096  0.00  0.00     0.001 A 
ATOM     30  C20 <0> d   1      -4.815 -11.294   3.068  0.00  0.00     0.011 A 
ENDBRANCH  24  25
ENDBRANCH  22  23
ENDBRANCH   4  22
TORSDOF 6
