REMARK  4 active torsions:
REMARK  status: ('A' for Active; 'I' for Inactive)
REMARK    1  A    between atoms: N1_6  and  C7_8 
REMARK    2  A    between atoms: C7_8  and  C8_9 
REMARK    3  A    between atoms: C9_10  and  O3_30 
REMARK    4  A    between atoms: C15_17  and  C16_18 
ROOT
ATOM      1  C8  <0> d   1      -5.529   8.427   0.096  0.00  0.00     0.036 A 
ATOM      2  C9  <0> d   1      -6.799   8.981   0.110  0.00  0.00     0.076 A 
ATOM      3  C10 <0> d   1      -7.928   8.166   0.116  0.00  0.00     0.038 A 
ATOM      4  C11 <0> d   1      -7.794   6.806   0.108  0.00  0.00     0.021 A 
ATOM      5  C12 <0> d   1      -6.522   6.234   0.093  0.00  0.00     0.051 A 
ATOM      6  C13 <0> d   1      -5.377   7.047   0.087  0.00  0.00     0.101 A 
ATOM      7  O1  <0> d   1      -4.282   6.256   0.074  0.00  0.00    -0.305 OA
ATOM      8  C14 <0> d   1      -4.619   4.945   0.070  0.00  0.00     0.128 A 
ATOM      9  C15 <0> d   1      -3.746   3.899   0.057  0.00  0.00     0.055 C 
ATOM     10  C25 <0> d   1      -6.035   4.843   0.077  0.00  0.00     0.218 A 
ATOM     11  O2  <0> d   1      -6.705   3.823   0.072  0.00  0.00    -0.284 OA
ENDROOT
BRANCH   9  12
ATOM     12  C16 <0> d   1      -2.306   4.149   0.045  0.00  0.00    -0.005 A 
ATOM     13  C19 <0> d   1      -1.232   3.138   0.030  0.00  0.00     0.002 A 
ATOM     14  C18 <0> d   1      -0.025   3.855   0.022  0.00  0.00     0.045 A 
ATOM     15  C20 <0> d   1      -1.217   1.746   0.017  0.00  0.00     0.014 A 
ATOM     16  N2  <0> d   1      -0.336   5.200   0.032  0.00  0.00    -0.360 N 
ATOM     17  C23 <0> d   1       1.181   3.161   0.007  0.00  0.00     0.030 A 
ATOM     18  C17 <0> d   1      -1.680   5.377   0.045  0.00  0.00     0.103 A 
ATOM     19  C24 <0> d   1       0.649   6.284   0.028  0.00  0.00     0.156 C 
ATOM     20  C22 <0> d   1       1.181   1.783   0.000  0.00  0.00     0.002 A 
ATOM     21  C21 <0> d   1      -0.013   1.076   0.008  0.00  0.00     0.001 A 
ENDBRANCH   9  12
BRANCH   1  22
ATOM     22  C7  <0> d   1      -4.316   9.320   0.090  0.00  0.00     0.279 C 
BRANCH  22  23
ATOM     23  N1  <0> d   1      -3.933   9.617  -1.297  0.00  0.00    -0.066 N 
ATOM     24  C5  <0> d   1      -2.909  10.668  -1.346  0.00  0.00     0.239 C 
ATOM     25  C4  <0> d   1      -2.641  11.053  -2.803  0.00  0.00     0.008 C 
ATOM     26  C3  <0> d   1      -2.169   9.818  -3.574  0.00  0.00     0.011 C 
ATOM     27  C26 <0> d   1      -1.558  12.133  -2.855  0.00  0.00     0.011 C 
ATOM     28  C2  <0> d   1      -3.233   8.722  -3.467  0.00  0.00     0.008 C 
ATOM     29  C1  <0> d   1      -4.533   9.206  -4.113  0.00  0.00     0.011 C 
ATOM     30  C6  <0> d   1      -3.484   8.404  -1.991  0.00  0.00     0.239 C 
ATOM     31  H28 <0> d   1      -4.824   9.993  -1.822  0.00  0.00     0.280 HD
ENDBRANCH  22  23
ENDBRANCH   1  22
BRANCH   2  32
ATOM     32  O3  <0> d   1      -6.944  10.331   0.118  0.00  0.00    -0.360 OA
ATOM     33  H29 <0> d   1      -7.950  10.776   0.129  0.00  0.00     0.217 HD
ENDBRANCH   2  32
TORSDOF 4
