REMARK  6 active torsions:
REMARK  status: ('A' for Active; 'I' for Inactive)
REMARK    1  A    between atoms: O1_2  and  C2_3 
REMARK    2  A    between atoms: C5_6  and  C8_10 
REMARK    3  A    between atoms: C6_7  and  O2_9 
REMARK    4  A    between atoms: C9_11  and  O3_17 
REMARK    5  A    between atoms: O3_17  and  C12_18 
REMARK    6  A    between atoms: C17_23  and  O4_24 
ROOT
ATOM      1  C8  <0> d   1      -2.492   3.883  -0.071  0.00  0.00     0.108 A 
ATOM      2  C9  <0> d   1      -2.528   5.277   0.168  0.00  0.00     0.121 A 
ATOM      3  C10 <0> d   1      -3.735   5.891   0.288  0.00  0.00     0.130 A 
ATOM      4  N1  <0> d   1      -4.874   5.145   0.185  0.00  0.00    -0.339 N 
ATOM      5  C11 <0> d   1      -4.802   3.820  -0.037  0.00  0.00     0.198 A 
ATOM      6  S1  <0> d   1      -6.247   2.910  -0.161  0.00  0.00    -0.039 SA
ATOM      7  N2  <0> d   1      -3.629   3.204  -0.163  0.00  0.00    -0.217 NA
ATOM      8  H16 <0> d   1      -5.858   5.627   0.285  0.00  0.00     0.167 HD
ENDROOT
BRANCH   1   9
ATOM      9  C5  <0> d   1      -1.197   3.187  -0.212  0.00  0.00     0.029 A 
ATOM     10  C4  <0> d   1      -0.179   3.404   0.719  0.00  0.00     0.019 A 
ATOM     11  C3  <0> d   1       1.026   2.753   0.584  0.00  0.00     0.038 A 
ATOM     12  C2  <0> d   1       1.235   1.878  -0.477  0.00  0.00     0.070 A 
ATOM     13  C7  <0> d   1       0.231   1.655  -1.407  0.00  0.00     0.074 A 
ATOM     14  C6  <0> d   1      -0.984   2.309  -1.285  0.00  0.00     0.081 A 
BRANCH  12  15
ATOM     15  O1  <0> d   1       2.427   1.240  -0.603  0.00  0.00    -0.356 OA
ATOM     16  C1  <0> d   1       3.418   1.514   0.390  0.00  0.00     0.210 C 
ENDBRANCH  12  15
BRANCH  14  17
ATOM     17  O2  <0> d   1      -1.966   2.097  -2.197  0.00  0.00    -0.360 OA
ATOM     18  H7  <0> d   1      -1.796   1.408  -3.038  0.00  0.00     0.217 HD
ENDBRANCH  14  17
ENDBRANCH   1   9
BRANCH   2  19
ATOM     19  O3  <0> d   1      -1.375   5.992   0.270  0.00  0.00    -0.304 OA
BRANCH  19  20
ATOM     20  C12 <0> d   1      -0.784   6.419  -0.877  0.00  0.00     0.109 A 
ATOM     21  C17 <0> d   1       0.456   7.048  -0.831  0.00  0.00     0.102 A 
ATOM     22  C16 <0> d   1       1.054   7.482  -2.004  0.00  0.00     0.039 A 
ATOM     23  C15 <0> d   1       0.418   7.288  -3.216  0.00  0.00     0.003 A 
ATOM     24  C14 <0> d   1      -0.814   6.663  -3.262  0.00  0.00     0.003 A 
ATOM     25  C13 <0> d   1      -1.414   6.224  -2.097  0.00  0.00     0.040 A 
BRANCH  21  26
ATOM     26  O4  <0> d   1       1.081   7.237   0.362  0.00  0.00    -0.353 OA
ATOM     27  C18 <0> d   1       2.352   7.889   0.333  0.00  0.00     0.210 C 
ENDBRANCH  21  26
ENDBRANCH  19  20
ENDBRANCH   2  19
TORSDOF 6
