REMARK  8 active torsions:
REMARK  status: ('A' for Active; 'I' for Inactive)
REMARK    1  A    between atoms: O1_2  and  C2_3 
REMARK    2  A    between atoms: C5_6  and  C9_11 
REMARK    3  A    between atoms: C7_8  and  O2_9 
REMARK    4  A    between atoms: C17_21  and  C18_22 
REMARK    5  A    between atoms: C18_22  and  N1_23 
REMARK    6  A    between atoms: N1_23  and  C19_24 
REMARK    7  A    between atoms: C19_24  and  C20_25 
REMARK    8  A    between atoms: C20_25  and  O5_26 
ROOT
ATOM      1  C9  <0> d   1      -3.844   5.443   1.049  0.00  0.00     0.048 A 
ATOM      2  C10 <0> d   1      -3.744   4.093   0.944  0.00  0.00     0.159 A 
ATOM      3  O3  <0> d   1      -2.764   3.496   0.261  0.00  0.00    -0.320 OA
ATOM      4  C11 <0> d   1      -1.792   4.172  -0.381  0.00  0.00     0.100 A 
ATOM      5  C12 <0> d   1      -1.767   5.578  -0.352  0.00  0.00     0.050 A 
ATOM      6  C13 <0> d   1      -2.825   6.281   0.395  0.00  0.00     0.197 A 
ATOM      7  O4  <0> d   1      -2.864   7.498   0.455  0.00  0.00    -0.286 OA
ATOM      8  C14 <0> d   1      -0.764   6.280  -1.022  0.00  0.00     0.021 A 
ATOM      9  C15 <0> d   1       0.202   5.597  -1.704  0.00  0.00     0.041 A 
ATOM     10  C16 <0> d   1       0.189   4.204  -1.735  0.00  0.00     0.118 A 
ATOM     11  C17 <0> d   1      -0.799   3.493  -1.076  0.00  0.00     0.039 A 
ATOM     12  O6  <0> d   1       1.155   3.538  -2.418  0.00  0.00    -0.191 OA
ENDROOT
BRANCH   1  13
ATOM     13  C5  <0> d   1      -4.952   6.061   1.819  0.00  0.00    -0.017 A 
ATOM     14  C4  <0> d   1      -4.677   7.036   2.777  0.00  0.00     0.015 A 
ATOM     15  C3  <0> d   1      -5.707   7.611   3.492  0.00  0.00     0.040 A 
ATOM     16  C2  <0> d   1      -7.018   7.221   3.261  0.00  0.00     0.101 A 
ATOM     17  C7  <0> d   1      -7.298   6.248   2.305  0.00  0.00     0.102 A 
ATOM     18  C6  <0> d   1      -6.269   5.673   1.581  0.00  0.00     0.052 A 
BRANCH  16  19
ATOM     19  O1  <0> d   1      -8.030   7.790   3.968  0.00  0.00    -0.353 OA
ATOM     20  C1  <0> d   1      -7.671   8.781   4.932  0.00  0.00     0.210 C 
ENDBRANCH  16  19
BRANCH  17  21
ATOM     21  O2  <0> d   1      -8.584   5.868   2.078  0.00  0.00    -0.353 OA
ATOM     22  C8  <0> d   1      -8.798   4.865   1.083  0.00  0.00     0.210 C 
ENDBRANCH  17  21
ENDBRANCH   1  13
BRANCH  11  23
ATOM     23  C18 <0> d   1      -0.802   1.987  -1.117  0.00  0.00     0.276 C 
BRANCH  23  24
ATOM     24  N1  <0> d   1      -0.018   1.465   0.010  0.00  0.00    -0.069 N 
ATOM     25  H15 <0> d   1       1.017   1.832  -0.061  0.00  0.00     0.277 HD
ATOM     26  H21 <0> d   1      -0.464   1.806   0.956  0.00  0.00     0.277 HD
BRANCH  24  27
ATOM     27  C19 <0> d   1       0.002  -0.004   0.002  0.00  0.00     0.258 C 
BRANCH  27  28
ATOM     28  C20 <0> d   1       0.826  -0.509   1.188  0.00  0.00     0.191 C 
BRANCH  28  29
ATOM     29  O5  <0> d   1       0.176  -0.147   2.408  0.00  0.00    -0.399 OA
ATOM     30  H20 <0> d   1       0.624  -0.427   3.373  0.00  0.00     0.209 HD
ENDBRANCH  28  29
ENDBRANCH  27  28
ENDBRANCH  24  27
ENDBRANCH  23  24
ENDBRANCH  11  23
TORSDOF 8
