REMARK  9 active torsions:
REMARK  status: ('A' for Active; 'I' for Inactive)
REMARK    1  A    between atoms: N1_4  and  C7_9 
REMARK    2  A    between atoms: C7_9  and  C8_10 
REMARK    3  A    between atoms: C8_10  and  O2_11 
REMARK    4  A    between atoms: O2_11  and  C9_12 
REMARK    5  A    between atoms: C12_15  and  C15_19 
REMARK    6  A    between atoms: C13_16  and  O3_18 
REMARK    7  A    between atoms: C16_20  and  C18_25 
REMARK    8  A    between atoms: C21_28  and  O5_33 
REMARK    9  A    between atoms: C22_29  and  O4_31 
ROOT
ATOM      1  C9  <0> d   1       6.306   0.406  -1.503  0.00  0.00     0.071 A 
ATOM      2  C10 <0> d   1       6.538   1.526  -2.290  0.00  0.00     0.038 A 
ATOM      3  C11 <0> d   1       7.764   2.157  -2.254  0.00  0.00     0.019 A 
ATOM      4  C12 <0> d   1       8.774   1.670  -1.426  0.00  0.00     0.029 A 
ATOM      5  C13 <0> d   1       8.539   0.542  -0.632  0.00  0.00     0.081 A 
ATOM      6  C14 <0> d   1       7.303  -0.081  -0.671  0.00  0.00     0.074 A 
ENDROOT
BRANCH   4   7
ATOM      7  C15 <0> d   1      10.093   2.346  -1.385  0.00  0.00     0.102 A 
ATOM      8  N3  <0> d   1      10.751   2.696  -0.302  0.00  0.00    -0.174 NA
ATOM      9  N2  <0> d   1      11.952   3.302  -0.690  0.00  0.00    -0.288 N 
ATOM     10  C17 <0> d   1      12.004   3.320  -2.038  0.00  0.00     0.124 A 
ATOM     11  H3  <0> d   1      12.630   3.652  -0.092  0.00  0.00     0.188 HD
ATOM     12  C16 <0> d   1      10.867   2.735  -2.508  0.00  0.00     0.022 A 
BRANCH  12  13
ATOM     13  C18 <0> d   1      10.504   2.540  -3.933  0.00  0.00    -0.019 A 
ATOM     14  C23 <0> d   1      10.494   3.626  -4.806  0.00  0.00     0.052 A 
ATOM     15  C22 <0> d   1      10.161   3.439  -6.136  0.00  0.00     0.102 A 
ATOM     16  C21 <0> d   1       9.826   2.169  -6.597  0.00  0.00     0.101 A 
ATOM     17  C20 <0> d   1       9.831   1.090  -5.727  0.00  0.00     0.040 A 
ATOM     18  C19 <0> d   1      10.168   1.271  -4.401  0.00  0.00     0.015 A 
BRANCH  15  19
ATOM     19  O4  <0> d   1      10.156   4.497  -6.991  0.00  0.00    -0.353 OA
ATOM     20  C24 <0> d   1      10.510   5.771  -6.449  0.00  0.00     0.210 C 
ENDBRANCH  15  19
BRANCH  16  21
ATOM     21  O5  <0> d   1       9.495   1.987  -7.904  0.00  0.00    -0.353 OA
ATOM     22  C25 <0> d   1       9.162   0.657  -8.309  0.00  0.00     0.210 C 
ENDBRANCH  16  21
ENDBRANCH  12  13
ENDBRANCH   4   7
BRANCH   5  23
ATOM     23  O3  <0> d   1       9.519   0.063   0.177  0.00  0.00    -0.360 OA
ATOM     24  H21 <0> d   1       9.516   0.444   1.066  0.00  0.00     0.217 HD
ENDBRANCH   5  23
BRANCH   1  25
ATOM     25  O2  <0> d   1       5.096  -0.210  -1.542  0.00  0.00    -0.349 OA
BRANCH  25  26
ATOM     26  C8  <0> d   1       4.114   0.344  -2.420  0.00  0.00     0.206 C 
BRANCH  26  27
ATOM     27  C7  <0> d   1       2.827  -0.478  -2.330  0.00  0.00     0.299 C 
BRANCH  27  28
ATOM     28  N1  <0> d   1       2.271  -0.371  -0.974  0.00  0.00     0.095 N 
ATOM     29  C3  <0> d   1       1.616   0.930  -0.775  0.00  0.00     0.303 C 
ATOM     30  C2  <0> d   1       1.105   1.023   0.665  0.00  0.00     0.146 C 
ATOM     31  C1  <0> d   1       2.290   0.966   1.632  0.00  0.00     0.041 C 
ATOM     32  O1  <0> d   1       0.223  -0.072   0.926  0.00  0.00    -0.378 OA
ATOM     33  C5  <0> d   1       0.830  -1.355   0.741  0.00  0.00     0.146 C 
ATOM     34  C4  <0> d   1       1.337  -1.472  -0.698  0.00  0.00     0.303 C 
ATOM     35  C6  <0> d   1      -0.203  -2.452   1.010  0.00  0.00     0.041 C 
ENDBRANCH  27  28
ENDBRANCH  26  27
ENDBRANCH  25  26
ENDBRANCH   1  25
TORSDOF 9
