REMARK  4 active torsions:
REMARK  status: ('A' for Active; 'I' for Inactive)
REMARK    1  A    between atoms: N2_5  and  C6_8 
REMARK    2  A    between atoms: C6_8  and  C7_9 
REMARK    3  A    between atoms: C8_10  and  O4_29 
REMARK    4  A    between atoms: C14_17  and  C15_18 
ROOT
ATOM      1  C7  <0> d   1      -0.063  -4.571   2.333  0.00  0.00     0.038 A 
ATOM      2  C8  <0> d   1       1.294  -4.779   2.525  0.00  0.00     0.076 A 
ATOM      3  C9  <0> d   1       1.774  -5.243   3.746  0.00  0.00     0.038 A 
ATOM      4  C10 <0> d   1       0.908  -5.498   4.772  0.00  0.00     0.021 A 
ATOM      5  C11 <0> d   1      -0.461  -5.293   4.594  0.00  0.00     0.051 A 
ATOM      6  C12 <0> d   1      -0.956  -4.820   3.368  0.00  0.00     0.101 A 
ATOM      7  O1  <0> d   1      -2.299  -4.696   3.438  0.00  0.00    -0.305 OA
ATOM      8  C13 <0> d   1      -2.775  -5.052   4.654  0.00  0.00     0.129 A 
ATOM      9  C14 <0> d   1      -4.080  -5.039   5.042  0.00  0.00     0.078 C 
ATOM     10  C23 <0> d   1      -1.630  -5.466   5.474  0.00  0.00     0.218 A 
ATOM     11  O3  <0> d   1      -1.642  -5.856   6.630  0.00  0.00    -0.284 OA
ENDROOT
BRANCH   9  12
ATOM     12  C15 <0> d   1      -5.085  -4.624   4.136  0.00  0.00     0.079 A 
ATOM     13  O2  <0> d   1      -4.870  -4.219   2.865  0.00  0.00    -0.310 OA
ATOM     14  C22 <0> d   1      -6.043  -3.897   2.282  0.00  0.00     0.086 A 
ATOM     15  C17 <0> d   1      -7.060  -4.099   3.235  0.00  0.00     0.000 A 
ATOM     16  C21 <0> d   1      -6.380  -3.437   1.015  0.00  0.00     0.038 A 
ATOM     17  C16 <0> d   1      -6.419  -4.564   4.410  0.00  0.00     0.051 A 
ATOM     18  C18 <0> d   1      -8.393  -3.836   2.898  0.00  0.00     0.014 A 
ATOM     19  C19 <0> d   1      -8.700  -3.385   1.647  0.00  0.00     0.001 A 
ATOM     20  C20 <0> d   1      -7.699  -3.184   0.705  0.00  0.00     0.003 A 
ENDBRANCH   9  12
BRANCH   1  21
ATOM     21  C6  <0> d   1      -0.568  -4.068   1.006  0.00  0.00     0.317 C 
BRANCH  21  22
ATOM     22  N2  <0> d   1      -0.588  -2.599   1.014  0.00  0.00     0.096 N 
ATOM     23  C3  <0> d   1      -1.292  -2.075  -0.165  0.00  0.00     0.303 C 
ATOM     24  C2  <0> d   1      -1.360  -0.549  -0.079  0.00  0.00     0.302 C 
ATOM     25  N1  <0> d   1       0.002  -0.004   0.002  0.00  0.00     0.087 N 
ATOM     26  C1  <0> d   1      -0.018   1.465   0.010  0.00  0.00     0.310 C 
ATOM     27  C5  <0> d   1       0.706  -0.528   1.181  0.00  0.00     0.302 C 
ATOM     28  C4  <0> d   1       0.774  -2.054   1.095  0.00  0.00     0.303 C 
ENDBRANCH  21  22
ENDBRANCH   1  21
BRANCH   2  29
ATOM     29  O4  <0> d   1       2.162  -4.528   1.512  0.00  0.00    -0.360 OA
ATOM     30  H22 <0> d   1       2.502  -3.623   1.500  0.00  0.00     0.217 HD
ENDBRANCH   2  29
TORSDOF 4
