REMARK  5 active torsions:
REMARK  status: ('A' for Active; 'I' for Inactive)
REMARK    1  A    between atoms: O1_2  and  C2_3 
REMARK    2  A    between atoms: C5_6  and  C8_9 
REMARK    3  A    between atoms: C14_16  and  C18_24 
REMARK    4  A    between atoms: C16_19  and  C17_20 
REMARK    5  A    between atoms: C18_24  and  N1_25 
ROOT
ATOM      1  C8  <0> d   1       3.341   3.683  -0.536  0.00  0.00     0.064 A 
ATOM      2  C9  <0> d   1       3.552   2.227  -0.590  0.00  0.00     0.198 A 
ATOM      3  O2  <0> d   1       4.549   1.744  -1.098  0.00  0.00    -0.286 OA
ATOM      4  C10 <0> d   1       2.499   1.381   0.001  0.00  0.00     0.050 A 
ATOM      5  C11 <0> d   1       2.603  -0.010   0.001  0.00  0.00     0.021 A 
ATOM      6  C12 <0> d   1       1.610  -0.764   0.557  0.00  0.00     0.041 A 
ATOM      7  C13 <0> d   1       0.494  -0.150   1.124  0.00  0.00     0.118 A 
ATOM      8  C14 <0> d   1       0.377   1.229   1.131  0.00  0.00     0.039 A 
ATOM      9  C15 <0> d   1       1.378   2.011   0.569  0.00  0.00     0.101 A 
ATOM     10  O3  <0> d   1       1.279   3.355   0.569  0.00  0.00    -0.303 OA
ATOM     11  C16 <0> d   1       2.209   4.158   0.044  0.00  0.00     0.174 A 
ATOM     12  O4  <0> d   1      -0.485  -0.912   1.674  0.00  0.00    -0.191 OA
ENDROOT
BRANCH   1  13
ATOM     13  C5  <0> d   1       4.346   4.614  -1.105  0.00  0.00    -0.019 A 
ATOM     14  C4  <0> d   1       5.581   4.777  -0.480  0.00  0.00     0.015 A 
ATOM     15  C3  <0> d   1       6.513   5.643  -1.012  0.00  0.00     0.037 A 
ATOM     16  C2  <0> d   1       6.223   6.352  -2.170  0.00  0.00     0.068 A 
ATOM     17  C7  <0> d   1       4.994   6.192  -2.795  0.00  0.00     0.037 A 
ATOM     18  C6  <0> d   1       4.059   5.325  -2.270  0.00  0.00     0.015 A 
BRANCH  16  19
ATOM     19  O1  <0> d   1       7.144   7.204  -2.692  0.00  0.00    -0.356 OA
ATOM     20  C1  <0> d   1       6.779   7.902  -3.884  0.00  0.00     0.210 C 
ENDBRANCH  16  19
ENDBRANCH   1  13
BRANCH  11  21
ATOM     21  C17 <0> d   1       1.993   5.648   0.100  0.00  0.00     0.440 C 
ATOM     22  F1  <0> d   1       1.780   6.137  -1.193  0.00  0.00    -0.164 F 
ATOM     23  F2  <0> d   1       0.876   5.928   0.895  0.00  0.00    -0.164 F 
ATOM     24  F3  <0> d   1       3.123   6.263   0.650  0.00  0.00    -0.164 F 
ENDBRANCH  11  21
BRANCH   8  25
ATOM     25  C18 <0> d   1      -0.838   1.880   1.741  0.00  0.00     0.279 C 
BRANCH  25  26
ATOM     26  N1  <0> d   1      -0.590   2.140   3.166  0.00  0.00    -0.067 N 
ATOM     27  C22 <0> d   1      -1.656   2.988   3.742  0.00  0.00     0.235 C 
ATOM     28  C21 <0> d   1      -0.994   3.887   4.803  0.00  0.00     0.029 C 
ATOM     29  C20 <0> d   1       0.507   3.517   4.766  0.00  0.00     0.029 C 
ATOM     30  C19 <0> d   1       0.675   2.894   3.357  0.00  0.00     0.235 C 
ATOM     31  H20 <0> d   1      -0.556   1.153   3.648  0.00  0.00     0.280 HD
ENDBRANCH  25  26
ENDBRANCH   8  25
TORSDOF 5
