REMARK  7 active torsions:
REMARK  status: ('A' for Active; 'I' for Inactive)
REMARK    1  A    between atoms: N2_5  and  C6_8 
REMARK    2  A    between atoms: C6_8  and  C7_9 
REMARK    3  A    between atoms: C7_9  and  O1_10 
REMARK    4  A    between atoms: O1_10  and  C8_11 
REMARK    5  A    between atoms: C13_16  and  C17_22 
REMARK    6  A    between atoms: C20_25  and  O5_30 
REMARK    7  A    between atoms: C21_26  and  O4_28 
ROOT
ATOM      1  C8  <0> d   1       2.419  -4.693   3.357  0.00  0.00     0.071 A 
ATOM      2  C9  <0> d   1       3.628  -5.355   3.147  0.00  0.00     0.038 A 
ATOM      3  C10 <0> d   1       4.372  -5.787   4.205  0.00  0.00     0.017 A 
ATOM      4  C11 <0> d   1       3.917  -5.574   5.514  0.00  0.00    -0.001 A 
ATOM      5  C12 <0> d   1       4.665  -6.047   6.624  0.00  0.00     0.032 C 
ATOM      6  C13 <0> d   1       4.088  -5.991   7.868  0.00  0.00     0.051 C 
ATOM      7  C14 <0> d   1       2.713  -5.472   7.958  0.00  0.00     0.299 C 
ATOM      8  O2  <0> d   1       1.976  -5.798   8.870  0.00  0.00    -0.259 OA
ATOM      9  O3  <0> d   1       2.296  -4.620   6.993  0.00  0.00    -0.274 OA
ATOM     10  C15 <0> d   1       2.712  -4.879   5.729  0.00  0.00     0.092 A 
ATOM     11  C16 <0> d   1       1.966  -4.448   4.643  0.00  0.00     0.075 A 
ENDROOT
BRANCH   1  12
ATOM     12  O1  <0> d   1       1.684  -4.279   2.293  0.00  0.00    -0.349 OA
BRANCH  12  13
ATOM     13  C7  <0> d   1       2.207  -4.563   0.994  0.00  0.00     0.203 C 
BRANCH  13  14
ATOM     14  C6  <0> d   1       1.247  -4.025  -0.070  0.00  0.00     0.261 C 
BRANCH  14  15
ATOM     15  N2  <0> d   1       1.166  -2.562   0.037  0.00  0.00    -0.066 N 
ATOM     16  C3  <0> d   1       2.466  -1.974  -0.311  0.00  0.00     0.265 C 
ATOM     17  C2  <0> d   1       2.388  -0.451  -0.181  0.00  0.00     0.299 C 
ATOM     18  N1  <0> d   1       1.342   0.061  -1.078  0.00  0.00     0.087 N 
ATOM     19  C1  <0> d   1       1.274   1.528  -1.024  0.00  0.00     0.310 C 
ATOM     20  C5  <0> d   1       0.039  -0.538  -0.757  0.00  0.00     0.299 C 
ATOM     21  C4  <0> d   1       0.137  -2.060  -0.882  0.00  0.00     0.265 C 
ATOM     22  H29 <0> d   1       0.925  -2.308   0.984  0.00  0.00     0.280 HD
ENDBRANCH  14  15
ENDBRANCH  13  14
ENDBRANCH  12  13
ENDBRANCH   1  12
BRANCH   6  23
ATOM     23  C17 <0> d   1       4.821  -6.438   9.076  0.00  0.00    -0.017 A 
ATOM     24  C22 <0> d   1       5.154  -5.519  10.070  0.00  0.00     0.052 A 
ATOM     25  C21 <0> d   1       5.833  -5.941  11.199  0.00  0.00     0.102 A 
ATOM     26  C20 <0> d   1       6.193  -7.280  11.335  0.00  0.00     0.101 A 
ATOM     27  C19 <0> d   1       5.866  -8.192  10.343  0.00  0.00     0.040 A 
ATOM     28  C18 <0> d   1       5.184  -7.777   9.217  0.00  0.00     0.015 A 
BRANCH  25  29
ATOM     29  O4  <0> d   1       6.155  -5.048  12.173  0.00  0.00    -0.353 OA
ATOM     30  C23 <0> d   1       5.755  -3.692  11.967  0.00  0.00     0.210 C 
ENDBRANCH  25  29
BRANCH  26  31
ATOM     31  O5  <0> d   1       6.865  -7.693  12.442  0.00  0.00    -0.353 OA
ATOM     32  C24 <0> d   1       7.201  -9.080  12.517  0.00  0.00     0.210 C 
ENDBRANCH  26  31
ENDBRANCH   6  23
TORSDOF 7
