REMARK  7 active torsions:
REMARK  status: ('A' for Active; 'I' for Inactive)
REMARK    1  A    between atoms: O1_2  and  C2_3 
REMARK    2  A    between atoms: C6_7  and  O2_9 
REMARK    3  A    between atoms: O2_9  and  C8_10 
REMARK    4  A    between atoms: C10_13  and  N3_25 
REMARK    5  A    between atoms: C11_15  and  C12_16 
REMARK    6  A    between atoms: C15_19  and  O4_23 
REMARK    7  A    between atoms: C17_21  and  O3_22 
ROOT
ATOM      1  C8  <0> d   1      -3.759  -4.609   0.159  0.00  0.00     0.124 A 
ATOM      2  C9  <0> d   1      -4.918  -3.846   0.162  0.00  0.00     0.176 A 
ATOM      3  N1  <0> d   1      -6.092  -4.453   0.248  0.00  0.00    -0.073 NA
ATOM      4  C10 <0> d   1      -6.174  -5.772   0.331  0.00  0.00     0.720 A 
ATOM      5  N2  <0> d   1      -5.097  -6.540   0.332  0.00  0.00    -0.060 NA
ATOM      6  C11 <0> d   1      -3.881  -6.004   0.243  0.00  0.00     0.124 A 
ENDROOT
BRANCH   6   7
ATOM      7  C12 <0> d   1      -2.677  -6.865   0.238  0.00  0.00     0.029 A 
ATOM      8  C17 <0> d   1      -2.610  -7.973  -0.615  0.00  0.00     0.081 A 
ATOM      9  C16 <0> d   1      -1.478  -8.771  -0.618  0.00  0.00     0.074 A 
ATOM     10  C15 <0> d   1      -0.420  -8.479   0.230  0.00  0.00     0.070 A 
ATOM     11  C14 <0> d   1      -0.489  -7.382   1.081  0.00  0.00     0.038 A 
ATOM     12  C13 <0> d   1      -1.608  -6.579   1.087  0.00  0.00     0.019 A 
BRANCH   8  13
ATOM     13  O3  <0> d   1      -3.649  -8.261  -1.440  0.00  0.00    -0.360 OA
ATOM     14  H17 <0> d   1      -3.591  -7.839  -2.308  0.00  0.00     0.217 HD
ENDBRANCH   8  13
BRANCH  10  15
ATOM     15  O4  <0> d   1       0.686  -9.267   0.228  0.00  0.00    -0.356 OA
ATOM     16  C18 <0> d   1       1.739  -8.909   1.125  0.00  0.00     0.210 C 
ENDBRANCH  10  15
ENDBRANCH   6   7
BRANCH   1  17
ATOM     17  O2  <0> d   1      -2.537  -4.020   0.071  0.00  0.00    -0.307 OA
BRANCH  17  18
ATOM     18  C6  <0> d   1      -2.478  -2.663   0.117  0.00  0.00     0.079 A 
ATOM     19  C5  <0> d   1      -2.099  -1.946  -1.009  0.00  0.00     0.037 A 
ATOM     20  C4  <0> d   1      -2.040  -0.566  -0.963  0.00  0.00     0.005 A 
ATOM     21  C3  <0> d   1      -2.358   0.103   0.204  0.00  0.00     0.037 A 
ATOM     22  C2  <0> d   1      -2.738  -0.610   1.333  0.00  0.00     0.070 A 
ATOM     23  C7  <0> d   1      -2.792  -1.994   1.291  0.00  0.00     0.074 A 
BRANCH  22  24
ATOM     24  O1  <0> d   1      -3.050   0.049   2.479  0.00  0.00    -0.356 OA
ATOM     25  C1  <0> d   1      -2.973   1.475   2.450  0.00  0.00     0.210 C 
ENDBRANCH  22  24
ENDBRANCH  17  18
ENDBRANCH   1  17
BRANCH   4  26
ATOM     26  N3  <0> d   1      -7.424  -6.365   0.419  0.00  0.00    -0.231 N 
ATOM     27  H15 <0> d   1      -8.223  -5.815   0.420  0.00  0.00     0.174 HD
ATOM     28  H16 <0> d   1      -7.500  -7.330   0.481  0.00  0.00     0.174 HD
ENDBRANCH   4  26
TORSDOF 7
