REMARK  5 active torsions:
REMARK  status: ('A' for Active; 'I' for Inactive)
REMARK    1  A    between atoms: N1_6  and  C7_8 
REMARK    2  A    between atoms: C7_8  and  C8_9 
REMARK    3  A    between atoms: C9_10  and  O4_32 
REMARK    4  A    between atoms: C15_17  and  C16_18 
REMARK    5  A    between atoms: C21_24  and  O2_27 
ROOT
ATOM      1  C8  <0> d   1       6.607   6.748  -0.029  0.00  0.00     0.036 A 
ATOM      2  C9  <0> d   1       7.868   7.323  -0.040  0.00  0.00     0.076 A 
ATOM      3  C10 <0> d   1       9.009   6.527  -0.055  0.00  0.00     0.038 A 
ATOM      4  C11 <0> d   1       8.898   5.164  -0.059  0.00  0.00     0.021 A 
ATOM      5  C12 <0> d   1       7.636   4.571  -0.050  0.00  0.00     0.051 A 
ATOM      6  C13 <0> d   1       6.477   5.366  -0.034  0.00  0.00     0.101 A 
ATOM      7  O1  <0> d   1       5.396   4.558  -0.032  0.00  0.00    -0.305 OA
ATOM      8  C14 <0> d   1       5.754   3.252  -0.037  0.00  0.00     0.128 A 
ATOM      9  C15 <0> d   1       4.898   2.192  -0.034  0.00  0.00     0.055 C 
ATOM     10  C26 <0> d   1       7.171   3.173  -0.051  0.00  0.00     0.218 A 
ATOM     11  O3  <0> d   1       7.858   2.164  -0.062  0.00  0.00    -0.284 OA
ENDROOT
BRANCH   9  12
ATOM     12  C16 <0> d   1       3.454   2.418  -0.019  0.00  0.00    -0.005 A 
ATOM     13  C19 <0> d   1       2.397   1.389  -0.014  0.00  0.00     0.005 A 
ATOM     14  C18 <0> d   1       1.178   2.086   0.002  0.00  0.00     0.045 A 
ATOM     15  C20 <0> d   1       2.406  -0.003  -0.021  0.00  0.00     0.051 A 
ATOM     16  N2  <0> d   1       1.468   3.437   0.006  0.00  0.00    -0.360 N 
ATOM     17  C23 <0> d   1      -0.017   1.373   0.010  0.00  0.00     0.033 A 
ATOM     18  C17 <0> d   1       2.808   3.636  -0.005  0.00  0.00     0.103 A 
ATOM     19  C25 <0> d   1       0.465   4.505   0.022  0.00  0.00     0.156 C 
ATOM     20  C22 <0> d   1       0.002  -0.004   0.002  0.00  0.00     0.039 A 
ATOM     21  C21 <0> d   1       1.209  -0.695  -0.013  0.00  0.00     0.069 A 
BRANCH  21  22
ATOM     22  O2  <0> d   1       1.212  -2.055  -0.021  0.00  0.00    -0.356 OA
ATOM     23  C24 <0> d   1      -0.060  -2.707  -0.012  0.00  0.00     0.210 C 
ENDBRANCH  21  22
ENDBRANCH   9  12
BRANCH   1  24
ATOM     24  C7  <0> d   1       5.380   7.621  -0.013  0.00  0.00     0.279 C 
BRANCH  24  25
ATOM     25  N1  <0> d   1       4.995   7.899   1.378  0.00  0.00    -0.066 N 
ATOM     26  C5  <0> d   1       3.954   8.932   1.440  0.00  0.00     0.239 C 
ATOM     27  C4  <0> d   1       3.683   9.299   2.901  0.00  0.00     0.008 C 
ATOM     28  C3  <0> d   1       3.233   8.048   3.660  0.00  0.00     0.011 C 
ATOM     29  C27 <0> d   1       4.961   9.850   3.534  0.00  0.00     0.011 C 
ATOM     30  C2  <0> d   1       4.314   6.970   3.540  0.00  0.00     0.008 C 
ATOM     31  C1  <0> d   1       3.847   5.697   4.247  0.00  0.00     0.011 C 
ATOM     32  C6  <0> d   1       4.567   6.671   2.060  0.00  0.00     0.239 C 
ATOM     33  H30 <0> d   1       5.881   8.284   1.905  0.00  0.00     0.280 HD
ENDBRANCH  24  25
ENDBRANCH   1  24
BRANCH   2  34
ATOM     34  O4  <0> d   1       7.991   8.675  -0.035  0.00  0.00    -0.360 OA
ATOM     35  H31 <0> d   1       8.989   9.137  -0.043  0.00  0.00     0.217 HD
ENDBRANCH   2  34
TORSDOF 5
