REMARK  2 active torsions:
REMARK  status: ('A' for Active; 'I' for Inactive)
REMARK    1  A    between atoms: C6_6  and  C11_13 
REMARK    2  A    between atoms: C11_13  and  N1_14 
ROOT
ATOM      1  C1  <0> d   1      -0.094   1.782  -0.925  0.00  0.00     0.048 C 
ATOM      2  C2  <0> d   1       0.102   0.297  -0.760  0.00  0.00    -0.059 A 
ATOM      3  C3  <0> d   1       0.173  -0.515  -1.882  0.00  0.00     0.014 A 
ATOM      4  C4  <0> d   1       0.351  -1.864  -1.752  0.00  0.00    -0.048 A 
ATOM      5  C5  <0> d   1       0.462  -2.429  -0.478  0.00  0.00     0.012 A 
ATOM      6  C6  <0> d   1       0.654  -3.872  -0.305  0.00  0.00    -0.013 A 
ATOM      7  C7  <0> d   1       0.756  -4.357   0.958  0.00  0.00     0.092 A 
ATOM      8  C8  <0> d   1       0.676  -3.475   2.058  0.00  0.00     0.288 A 
ATOM      9  O1  <0> d   1       0.768  -3.924   3.186  0.00  0.00    -0.260 OA
ATOM     10  O2  <0> d   1       0.500  -2.156   1.891  0.00  0.00    -0.275 OA
ATOM     11  C9  <0> d   1       0.391  -1.609   0.662  0.00  0.00     0.091 A 
ATOM     12  C10 <0> d   1       0.215  -0.240   0.506  0.00  0.00     0.045 A 
ATOM     13  C17 <0> d   1       0.426  -2.739  -2.977  0.00  0.00     0.049 C 
ENDROOT
BRANCH   6  14
ATOM     14  C11 <0> d   1       0.736  -4.791  -1.496  0.00  0.00     0.274 C 
BRANCH  14  15
ATOM     15  N1  <0> d   1      -0.618  -5.195  -1.897  0.00  0.00    -0.064 N 
ATOM     16  C15 <0> d   1      -0.552  -5.944  -3.158  0.00  0.00     0.265 C 
ATOM     17  C14 <0> d   1      -1.965  -6.349  -3.586  0.00  0.00     0.299 C 
ATOM     18  N2  <0> d   1      -2.573  -7.177  -2.535  0.00  0.00     0.087 N 
ATOM     19  C13 <0> d   1      -2.623  -6.448  -1.260  0.00  0.00     0.299 C 
ATOM     20  C16 <0> d   1      -3.911  -7.634  -2.933  0.00  0.00     0.310 C 
ATOM     21  C12 <0> d   1      -1.205  -6.043  -0.851  0.00  0.00     0.265 C 
ATOM     22  H23 <0> d   1      -1.190  -4.373  -2.024  0.00  0.00     0.280 HD
ENDBRANCH  14  15
ENDBRANCH   6  14
TORSDOF 2
