REMARK  5 active torsions:
REMARK  status: ('A' for Active; 'I' for Inactive)
REMARK    1  A    between atoms: N2_5  and  C6_8 
REMARK    2  A    between atoms: C6_8  and  C7_9 
REMARK    3  A    between atoms: C8_10  and  O4_28 
REMARK    4  A    between atoms: C14_17  and  C16_20 
REMARK    5  A    between atoms: C21_25  and  O3_26 
ROOT
ATOM      1  C7  <0> d   1       0.027  -4.587   2.279  0.00  0.00     0.035 A 
ATOM      2  C8  <0> d   1       1.395  -4.773   2.390  0.00  0.00     0.076 A 
ATOM      3  C9  <0> d   1       1.952  -5.264   3.568  0.00  0.00     0.038 A 
ATOM      4  C10 <0> d   1       1.153  -5.566   4.634  0.00  0.00     0.021 A 
ATOM      5  C11 <0> d   1      -0.226  -5.382   4.538  0.00  0.00     0.050 A 
ATOM      6  C12 <0> d   1      -0.800  -4.888   3.353  0.00  0.00     0.100 A 
ATOM      7  O1  <0> d   1      -2.133  -4.721   3.261  0.00  0.00    -0.320 OA
ATOM      8  C13 <0> d   1      -2.917  -4.714   4.342  0.00  0.00     0.159 C 
ATOM      9  C14 <0> d   1      -2.503  -5.170   5.553  0.00  0.00     0.050 C 
ATOM     10  C15 <0> d   1      -1.124  -5.689   5.668  0.00  0.00     0.198 C 
ATOM     11  O2  <0> d   1      -0.747  -6.318   6.641  0.00  0.00    -0.286 OA
ENDROOT
BRANCH   1  12
ATOM     12  C6  <0> d   1      -0.562  -4.056   0.998  0.00  0.00     0.279 C 
BRANCH  12  13
ATOM     13  N2  <0> d   1      -0.611  -2.589   1.053  0.00  0.00    -0.064 N 
ATOM     14  C3  <0> d   1      -1.293  -2.076  -0.143  0.00  0.00     0.265 C 
ATOM     15  C2  <0> d   1      -1.361  -0.549  -0.076  0.00  0.00     0.299 C 
ATOM     16  N1  <0> d   1       0.002  -0.004   0.002  0.00  0.00     0.087 N 
ATOM     17  C1  <0> d   1      -0.018   1.465   0.010  0.00  0.00     0.310 C 
ATOM     18  C5  <0> d   1       0.707  -0.528   1.181  0.00  0.00     0.299 C 
ATOM     19  C4  <0> d   1       0.757  -2.055   1.104  0.00  0.00     0.265 C 
ATOM     20  H25 <0> d   1      -1.115  -2.300   1.878  0.00  0.00     0.280 HD
ENDBRANCH  12  13
ENDBRANCH   1  12
BRANCH   2  21
ATOM     21  O4  <0> d   1       2.201  -4.473   1.339  0.00  0.00    -0.360 OA
ATOM     22  H24 <0> d   1       2.522  -3.561   1.337  0.00  0.00     0.217 HD
ENDBRANCH   2  21
BRANCH   9  23
ATOM     23  C16 <0> d   1      -3.414  -5.158   6.723  0.00  0.00     0.013 A 
ATOM     24  C21 <0> d   1      -3.702  -3.957   7.378  0.00  0.00     0.079 A 
ATOM     25  C20 <0> d   1      -4.559  -3.954   8.466  0.00  0.00     0.037 A 
ATOM     26  C19 <0> d   1      -5.117  -5.138   8.910  0.00  0.00     0.003 A 
ATOM     27  C18 <0> d   1      -4.830  -6.330   8.269  0.00  0.00     0.001 A 
ATOM     28  C17 <0> d   1      -3.982  -6.346   7.179  0.00  0.00     0.015 A 
BRANCH  24  29
ATOM     29  O3  <0> d   1      -3.147  -2.794   6.944  0.00  0.00    -0.355 OA
ATOM     30  C22 <0> d   1      -3.486  -1.606   7.661  0.00  0.00     0.210 C 
ENDBRANCH  24  29
ENDBRANCH   9  23
TORSDOF 5
