REMARK  4 active torsions:
REMARK  status: ('A' for Active; 'I' for Inactive)
REMARK    1  A    between atoms: C7_7  and  C8_8 
REMARK    2  A    between atoms: C14_15  and  O3_27 
REMARK    3  A    between atoms: C15_16  and  C17_19 
REMARK    4  A    between atoms: C17_19  and  N1_20 
ROOT
ATOM      1  C8  <0> d   1       0.026   0.010   2.489  0.00  0.00     0.053 C 
ATOM      2  C9  <0> d   1      -0.056  -0.677   3.655  0.00  0.00     0.128 A 
ATOM      3  C10 <0> d   1      -0.174  -0.095   5.002  0.00  0.00     0.218 A 
ATOM      4  O1  <0> d   1      -0.218   1.085   5.303  0.00  0.00    -0.284 OA
ATOM      5  C11 <0> d   1      -0.227  -1.259   5.904  0.00  0.00     0.051 A 
ATOM      6  C12 <0> d   1      -0.335  -1.389   7.290  0.00  0.00     0.021 A 
ATOM      7  C13 <0> d   1      -0.359  -2.631   7.857  0.00  0.00     0.038 A 
ATOM      8  C14 <0> d   1      -0.276  -3.768   7.057  0.00  0.00     0.076 A 
ATOM      9  C15 <0> d   1      -0.168  -3.654   5.681  0.00  0.00     0.038 A 
ATOM     10  C16 <0> d   1      -0.142  -2.398   5.087  0.00  0.00     0.101 A 
ATOM     11  O2  <0> d   1      -0.050  -2.024   3.792  0.00  0.00    -0.305 OA
ENDROOT
BRANCH   1  12
ATOM     12  C7  <0> d   1       0.012  -0.711   1.208  0.00  0.00    -0.028 A 
ATOM     13  C2  <0> d   1      -0.271  -0.029   0.020  0.00  0.00    -0.052 A 
ATOM     14  C1  <0> d   1      -0.564   1.449   0.049  0.00  0.00     0.049 C 
ATOM     15  C3  <0> d   1      -0.276  -0.712  -1.178  0.00  0.00     0.007 A 
ATOM     16  C4  <0> d   1      -0.008  -2.069  -1.206  0.00  0.00     0.001 A 
ATOM     17  C5  <0> d   1       0.268  -2.753  -0.034  0.00  0.00     0.001 A 
ATOM     18  C6  <0> d   1       0.277  -2.085   1.172  0.00  0.00     0.012 A 
ENDBRANCH   1  12
BRANCH   9  19
ATOM     19  C17 <0> d   1      -0.077  -4.893   4.827  0.00  0.00     0.317 C 
BRANCH  19  20
ATOM     20  N1  <0> d   1      -1.428  -5.319   4.439  0.00  0.00     0.096 N 
ATOM     21  C21 <0> d   1      -1.401  -6.647   3.810  0.00  0.00     0.303 C 
ATOM     22  C20 <0> d   1      -2.832  -7.088   3.493  0.00  0.00     0.302 C 
ATOM     23  N2  <0> d   1      -3.461  -6.101   2.606  0.00  0.00     0.087 N 
ATOM     24  C19 <0> d   1      -3.489  -4.773   3.235  0.00  0.00     0.302 C 
ATOM     25  C22 <0> d   1      -4.812  -6.527   2.217  0.00  0.00     0.310 C 
ATOM     26  C18 <0> d   1      -2.058  -4.332   3.551  0.00  0.00     0.303 C 
ENDBRANCH  19  20
ENDBRANCH   9  19
BRANCH   8  27
ATOM     27  O3  <0> d   1      -0.301  -4.997   7.631  0.00  0.00    -0.360 OA
ATOM     28  H24 <0> d   1      -1.189  -5.369   7.727  0.00  0.00     0.217 HD
ENDBRANCH   8  27
TORSDOF 4
