REMARK  8 active torsions:
REMARK  status: ('A' for Active; 'I' for Inactive)
REMARK    1  A    between atoms: C3_3  and  C18_24 
REMARK    2  A    between atoms: C8_9  and  O4_23 
REMARK    3  A    between atoms: C9_10  and  C11_13 
REMARK    4  A    between atoms: C11_13  and  N1_14 
REMARK    5  A    between atoms: N2_17  and  C16_20 
REMARK    6  A    between atoms: C16_20  and  C17_21 
REMARK    7  A    between atoms: C17_21  and  O3_22 
REMARK    8  A    between atoms: C23_29  and  O5_30 
ROOT
ATOM      1  C1  <0> d   1      -0.018   1.503   0.010  0.00  0.00     0.077 C 
ATOM      2  C2  <0> d   1       0.002  -0.004   0.002  0.00  0.00     0.065 C 
ATOM      3  C3  <0> d   1      -1.182  -0.671   0.004  0.00  0.00     0.057 C 
ATOM      4  C4  <0> d   1      -1.150  -2.146   0.014  0.00  0.00     0.198 C 
ATOM      5  O1  <0> d   1      -2.144  -2.815  -0.209  0.00  0.00    -0.286 OA
ATOM      6  C5  <0> d   1       0.158  -2.762   0.308  0.00  0.00     0.050 A 
ATOM      7  C6  <0> d   1       0.273  -4.121   0.598  0.00  0.00     0.021 A 
ATOM      8  C7  <0> d   1       1.501  -4.653   0.872  0.00  0.00     0.038 A 
ATOM      9  C8  <0> d   1       2.635  -3.843   0.863  0.00  0.00     0.076 A 
ATOM     10  C9  <0> d   1       2.536  -2.493   0.574  0.00  0.00     0.038 A 
ATOM     11  C10 <0> d   1       1.296  -1.936   0.290  0.00  0.00     0.100 A 
ATOM     12  O2  <0> d   1       1.182  -0.627  -0.013  0.00  0.00    -0.313 OA
ENDROOT
BRANCH  10  13
ATOM     13  C11 <0> d   1       3.771  -1.629   0.568  0.00  0.00     0.317 C 
BRANCH  13  14
ATOM     14  N1  <0> d   1       4.358  -1.623  -0.779  0.00  0.00     0.096 N 
ATOM     15  C15 <0> d   1       5.419  -0.612  -0.886  0.00  0.00     0.303 C 
ATOM     16  C14 <0> d   1       5.949  -0.582  -2.322  0.00  0.00     0.302 C 
ATOM     17  N2  <0> d   1       6.456  -1.914  -2.681  0.00  0.00     0.093 N 
ATOM     18  C13 <0> d   1       5.395  -2.925  -2.574  0.00  0.00     0.302 C 
ATOM     19  C12 <0> d   1       4.865  -2.954  -1.138  0.00  0.00     0.303 C 
BRANCH  17  20
ATOM     20  C16 <0> d   1       7.043  -1.907  -4.028  0.00  0.00     0.298 C 
BRANCH  20  21
ATOM     21  C17 <0> d   1       8.296  -1.030  -4.034  0.00  0.00     0.194 C 
BRANCH  21  22
ATOM     22  O3  <0> d   1       9.291  -1.615  -3.190  0.00  0.00    -0.399 OA
ATOM     23  H20 <0> d   1      10.115  -1.111  -3.146  0.00  0.00     0.209 HD
ENDBRANCH  21  22
ENDBRANCH  20  21
ENDBRANCH  17  20
ENDBRANCH  13  14
ENDBRANCH  10  13
BRANCH   9  24
ATOM     24  O4  <0> d   1       3.849  -4.384   1.140  0.00  0.00    -0.360 OA
ATOM     25  H21 <0> d   1       4.319  -4.715   0.362  0.00  0.00     0.217 HD
ENDBRANCH   9  24
BRANCH   3  26
ATOM     26  C18 <0> d   1      -2.470   0.063  -0.002  0.00  0.00     0.014 A 
ATOM     27  C23 <0> d   1      -3.237   0.146   1.164  0.00  0.00     0.079 A 
ATOM     28  C22 <0> d   1      -4.436   0.839   1.151  0.00  0.00     0.037 A 
ATOM     29  C21 <0> d   1      -4.878   1.436  -0.015  0.00  0.00     0.003 A 
ATOM     30  C20 <0> d   1      -4.125   1.351  -1.172  0.00  0.00     0.001 A 
ATOM     31  C19 <0> d   1      -2.925   0.669  -1.171  0.00  0.00     0.015 A 
BRANCH  27  32
ATOM     32  O5  <0> d   1      -2.805  -0.447   2.308  0.00  0.00    -0.355 OA
ATOM     33  C24 <0> d   1      -3.641  -0.320   3.460  0.00  0.00     0.210 C 
ENDBRANCH  27  32
ENDBRANCH   3  26
TORSDOF 8
