REMARK  6 active torsions:
REMARK  status: ('A' for Active; 'I' for Inactive)
REMARK    1  A    between atoms: N2_5  and  C6_8 
REMARK    2  A    between atoms: C6_8  and  C7_9 
REMARK    3  A    between atoms: C8_10  and  O4_32 
REMARK    4  A    between atoms: C13_16  and  C23_28 
REMARK    5  A    between atoms: C14_17  and  C16_20 
REMARK    6  A    between atoms: C21_25  and  O3_26 
ROOT
ATOM      1  C7  <0> d   1      -0.018   1.503   0.010  0.00  0.00     0.038 A 
ATOM      2  C8  <0> d   1       1.170   2.213   0.003  0.00  0.00     0.076 A 
ATOM      3  C9  <0> d   1       1.164   3.606   0.010  0.00  0.00     0.038 A 
ATOM      4  C10 <0> d   1      -0.018   4.290   0.025  0.00  0.00     0.021 A 
ATOM      5  C11 <0> d   1      -1.224   3.589   0.033  0.00  0.00     0.050 A 
ATOM      6  C12 <0> d   1      -1.229   2.183   0.020  0.00  0.00     0.101 A 
ATOM      7  O1  <0> d   1      -2.395   1.506   0.034  0.00  0.00    -0.303 OA
ATOM      8  C13 <0> d   1      -3.589   2.104   0.047  0.00  0.00     0.174 A 
ATOM      9  C14 <0> d   1      -3.730   3.455   0.056  0.00  0.00     0.067 A 
ATOM     10  C15 <0> d   1      -2.519   4.293   0.048  0.00  0.00     0.198 A 
ATOM     11  O2  <0> d   1      -2.584   5.511   0.055  0.00  0.00    -0.286 OA
ENDROOT
BRANCH   1  12
ATOM     12  C6  <0> d   1       0.002  -0.004   0.002  0.00  0.00     0.317 C 
BRANCH  12  13
ATOM     13  N2  <0> d   1       0.022  -0.501   1.384  0.00  0.00     0.096 N 
ATOM     14  C3  <0> d   1      -0.196  -1.954   1.425  0.00  0.00     0.303 C 
ATOM     15  C2  <0> d   1      -0.248  -2.419   2.882  0.00  0.00     0.302 C 
ATOM     16  N1  <0> d   1       1.009  -2.059   3.553  0.00  0.00     0.087 N 
ATOM     17  C1  <0> d   1       1.029  -2.556   4.935  0.00  0.00     0.310 C 
ATOM     18  C5  <0> d   1       1.227  -0.606   3.513  0.00  0.00     0.302 C 
ATOM     19  C4  <0> d   1       1.279  -0.141   2.055  0.00  0.00     0.303 C 
ENDBRANCH  12  13
ENDBRANCH   1  12
BRANCH   2  20
ATOM     20  O4  <0> d   1       2.352   1.546  -0.012  0.00  0.00    -0.360 OA
ATOM     21  H23 <0> d   1       3.300   2.106  -0.018  0.00  0.00     0.217 HD
ENDBRANCH   2  20
BRANCH   8  22
ATOM     22  C23 <0> d   1      -4.828   1.247   0.054  0.00  0.00     0.440 C 
ATOM     23  F1  <0> d   1      -5.224   0.989  -1.262  0.00  0.00    -0.164 F 
ATOM     24  F2  <0> d   1      -4.556   0.039   0.705  0.00  0.00    -0.164 F 
ATOM     25  F3  <0> d   1      -5.856   1.918   0.727  0.00  0.00    -0.164 F 
ENDBRANCH   8  22
BRANCH   9  26
ATOM     26  C16 <0> d   1      -5.077   4.074   0.071  0.00  0.00     0.014 A 
ATOM     27  C21 <0> d   1      -5.704   4.362   1.287  0.00  0.00     0.079 A 
ATOM     28  C20 <0> d   1      -6.963   4.940   1.292  0.00  0.00     0.037 A 
ATOM     29  C19 <0> d   1      -7.596   5.232   0.098  0.00  0.00     0.003 A 
ATOM     30  C18 <0> d   1      -6.978   4.949  -1.107  0.00  0.00     0.001 A 
ATOM     31  C17 <0> d   1      -5.722   4.378  -1.126  0.00  0.00     0.015 A 
BRANCH  27  32
ATOM     32  O3  <0> d   1      -5.081   4.075   2.460  0.00  0.00    -0.355 OA
ATOM     33  C22 <0> d   1      -5.782   4.397   3.663  0.00  0.00     0.210 C 
ENDBRANCH  27  32
ENDBRANCH   9  26
TORSDOF 6
