REMARK  4 active torsions:
REMARK  status: ('A' for Active; 'I' for Inactive)
REMARK    1  A    between atoms: C4_4  and  O4_31 
REMARK    2  A    between atoms: C5_5  and  C19_22 
REMARK    3  A    between atoms: C10_11  and  C11_12 
REMARK    4  A    between atoms: C19_22  and  N1_23 
ROOT
ATOM      1  C1  <0> d   1      -2.208   3.661   7.112  0.00  0.00     0.049 C 
ATOM      2  C2  <0> d   1      -1.661   2.962   5.894  0.00  0.00    -0.042 A 
ATOM      3  C3  <0> d   1      -0.536   3.435   5.280  0.00  0.00     0.045 A 
ATOM      4  C4  <0> d   1      -0.028   2.788   4.157  0.00  0.00     0.076 A 
ATOM      5  C5  <0> d   1      -0.658   1.666   3.644  0.00  0.00     0.036 A 
ATOM      6  C6  <0> d   1      -1.803   1.171   4.256  0.00  0.00     0.101 A 
ATOM      7  C7  <0> d   1      -2.304   1.830   5.391  0.00  0.00     0.057 A 
ATOM      8  C8  <0> d   1      -3.505   1.083   5.808  0.00  0.00     0.219 A 
ATOM      9  O1  <0> d   1      -4.241   1.320   6.751  0.00  0.00    -0.284 OA
ATOM     10  C9  <0> d   1      -3.616  -0.009   4.833  0.00  0.00     0.129 A 
ATOM     11  C10 <0> d   1      -4.581  -0.971   4.810  0.00  0.00     0.078 C 
ATOM     12  O3  <0> d   1      -2.587   0.112   3.962  0.00  0.00    -0.305 OA
ENDROOT
BRANCH   5  13
ATOM     13  C19 <0> d   1      -0.099   0.979   2.425  0.00  0.00     0.279 C 
BRANCH  13  14
ATOM     14  N1  <0> d   1      -0.700   1.559   1.216  0.00  0.00    -0.066 N 
ATOM     15  C24 <0> d   1      -0.013   1.086   0.008  0.00  0.00     0.239 C 
ATOM     16  C23 <0> d   1      -0.752   1.593  -1.232  0.00  0.00     0.008 C 
ATOM     17  C22 <0> d   1      -0.788   3.123  -1.209  0.00  0.00     0.011 C 
ATOM     18  C25 <0> d   1      -0.024   1.117  -2.491  0.00  0.00     0.011 C 
ATOM     19  C21 <0> d   1      -1.465   3.591   0.082  0.00  0.00     0.008 C 
ATOM     20  C20 <0> d   1      -0.705   3.026   1.284  0.00  0.00     0.239 C 
ATOM     21  C26 <0> d   1      -1.452   5.120   0.141  0.00  0.00     0.011 C 
ATOM     22  H27 <0> d   1      -1.745   1.222   1.161  0.00  0.00     0.280 HD
ENDBRANCH  13  14
ENDBRANCH   5  13
BRANCH   4  23
ATOM     23  O4  <0> d   1       1.093   3.264   3.557  0.00  0.00    -0.360 OA
ATOM     24  H28 <0> d   1       1.499   2.756   2.669  0.00  0.00     0.217 HD
ENDBRANCH   4  23
BRANCH  11  25
ATOM     25  C11 <0> d   1      -4.562  -1.968   3.805  0.00  0.00     0.079 A 
ATOM     26  O2  <0> d   1      -3.642  -2.067   2.821  0.00  0.00    -0.310 OA
ATOM     27  C18 <0> d   1      -3.922  -3.129   2.038  0.00  0.00     0.086 A 
ATOM     28  C13 <0> d   1      -5.082  -3.740   2.549  0.00  0.00     0.000 A 
ATOM     29  C17 <0> d   1      -3.309  -3.668   0.913  0.00  0.00     0.038 A 
ATOM     30  C12 <0> d   1      -5.467  -2.981   3.682  0.00  0.00     0.051 A 
ATOM     31  C14 <0> d   1      -5.605  -4.878   1.924  0.00  0.00     0.014 A 
ATOM     32  C15 <0> d   1      -4.985  -5.389   0.819  0.00  0.00     0.001 A 
ATOM     33  C16 <0> d   1      -3.840  -4.789   0.313  0.00  0.00     0.003 A 
ENDBRANCH  11  25
TORSDOF 4
