REMARK  4 active torsions:
REMARK  status: ('A' for Active; 'I' for Inactive)
REMARK    1  A    between atoms: C6_6  and  C7_7 
REMARK    2  A    between atoms: C7_7  and  N1_8 
REMARK    3  A    between atoms: N2_11  and  C12_14 
REMARK    4  A    between atoms: C12_14  and  C13_15 
ROOT
ATOM      1  N1  <0> d   1       5.988  -0.944   0.995  0.00  0.00     0.096 N 
ATOM      2  C8  <0> d   1       5.681  -2.304   0.529  0.00  0.00     0.303 C 
ATOM      3  C9  <0> d   1       6.701  -2.717  -0.536  0.00  0.00     0.303 C 
ATOM      4  N2  <0> d   1       8.054  -2.651   0.034  0.00  0.00     0.096 N 
ATOM      5  C10 <0> d   1       8.360  -1.291   0.500  0.00  0.00     0.303 C 
ATOM      6  C11 <0> d   1       7.341  -0.878   1.565  0.00  0.00     0.303 C 
ENDROOT
BRANCH   4   7
ATOM      7  C12 <0> d   1       9.056  -3.113  -0.935  0.00  0.00     0.312 C 
BRANCH   7   8
ATOM      8  C13 <0> d   1       8.656  -4.467  -1.464  0.00  0.00    -0.011 A 
ATOM      9  C17 <0> d   1       8.800  -5.668  -0.640  0.00  0.00     0.009 A 
ATOM     10  C16 <0> d   1       8.409  -6.911  -1.172  0.00  0.00     0.093 A 
ATOM     11  C18 <0> d   1       9.312  -5.593   0.660  0.00  0.00     0.054 A 
ATOM     12  O2  <0> d   1       7.922  -6.979  -2.430  0.00  0.00    -0.275 OA
ATOM     13  C21 <0> d   1       8.533  -8.056  -0.399  0.00  0.00     0.078 A 
ATOM     14  C15 <0> d   1       7.792  -5.883  -3.192  0.00  0.00     0.288 A 
ATOM     15  C14 <0> d   1       8.158  -4.605  -2.720  0.00  0.00     0.092 A 
ATOM     16  O1  <0> d   1       7.347  -5.993  -4.321  0.00  0.00    -0.260 OA
ATOM     17  C20 <0> d   1       9.049  -7.976   0.883  0.00  0.00     0.107 A 
ATOM     18  C19 <0> d   1       9.434  -6.740   1.415  0.00  0.00     0.106 A 
ATOM     19  O3  <0> d   1       9.270  -8.939   1.824  0.00  0.00    -0.323 OA
ATOM     20  O4  <0> d   1       9.893  -6.938   2.686  0.00  0.00    -0.323 OA
ATOM     21  C22 <0> d   1       9.404  -8.235   3.072  0.00  0.00     0.352 C 
ENDBRANCH   7   8
ENDBRANCH   4   7
BRANCH   1  22
ATOM     22  C7  <0> d   1       4.985  -0.481   1.964  0.00  0.00     0.311 C 
BRANCH  22  23
ATOM     23  C6  <0> d   1       3.654  -0.329   1.275  0.00  0.00    -0.027 A 
ATOM     24  C1  <0> d   1       2.777  -1.396   1.226  0.00  0.00     0.012 A 
ATOM     25  C2  <0> d   1       1.553  -1.261   0.596  0.00  0.00     0.040 A 
ATOM     26  C3  <0> d   1       1.204  -0.055   0.011  0.00  0.00     0.105 A 
ATOM     27  O6  <0> d   1       0.081   0.334  -0.659  0.00  0.00    -0.323 OA
ATOM     28  C4  <0> d   1       2.088   1.021   0.061  0.00  0.00     0.105 A 
ATOM     29  C23 <0> d   1       0.114   1.773  -0.663  0.00  0.00     0.352 C 
ATOM     30  O5  <0> d   1       1.518   2.083  -0.579  0.00  0.00    -0.323 OA
ATOM     31  C5  <0> d   1       3.311   0.878   0.694  0.00  0.00     0.048 A 
ENDBRANCH  22  23
ENDBRANCH   1  22
TORSDOF 4
