REMARK  4 active torsions:
REMARK  status: ('A' for Active; 'I' for Inactive)
REMARK    1  A    between atoms: C4_4  and  O4_32 
REMARK    2  A    between atoms: C5_5  and  C19_23 
REMARK    3  A    between atoms: C10_11  and  C11_12 
REMARK    4  A    between atoms: C19_23  and  N1_24 
ROOT
ATOM      1  C1  <0> d   1      -2.208   3.662   7.111  0.00  0.00     0.049 C 
ATOM      2  C2  <0> d   1      -1.662   2.962   5.893  0.00  0.00    -0.042 A 
ATOM      3  C3  <0> d   1      -0.537   3.436   5.279  0.00  0.00     0.045 A 
ATOM      4  C4  <0> d   1      -0.028   2.788   4.157  0.00  0.00     0.076 A 
ATOM      5  C5  <0> d   1      -0.658   1.666   3.644  0.00  0.00     0.036 A 
ATOM      6  C6  <0> d   1      -1.803   1.171   4.256  0.00  0.00     0.101 A 
ATOM      7  C7  <0> d   1      -2.304   1.830   5.391  0.00  0.00     0.057 A 
ATOM      8  C8  <0> d   1      -3.505   1.083   5.808  0.00  0.00     0.219 A 
ATOM      9  O1  <0> d   1      -4.241   1.320   6.750  0.00  0.00    -0.284 OA
ATOM     10  C9  <0> d   1      -3.616  -0.010   4.833  0.00  0.00     0.129 A 
ATOM     11  C10 <0> d   1      -4.580  -0.972   4.810  0.00  0.00     0.078 C 
ATOM     12  O3  <0> d   1      -2.587   0.112   3.963  0.00  0.00    -0.305 OA
ENDROOT
BRANCH  11  13
ATOM     13  C11 <0> d   1      -4.562  -1.968   3.805  0.00  0.00     0.079 A 
ATOM     14  O2  <0> d   1      -3.645  -2.064   2.818  0.00  0.00    -0.310 OA
ATOM     15  C18 <0> d   1      -3.921  -3.131   2.039  0.00  0.00     0.086 A 
ATOM     16  C13 <0> d   1      -5.081  -3.742   2.551  0.00  0.00     0.002 A 
ATOM     17  C17 <0> d   1      -3.307  -3.669   0.915  0.00  0.00     0.039 A 
ATOM     18  C12 <0> d   1      -5.469  -2.978   3.680  0.00  0.00     0.051 A 
ATOM     19  C14 <0> d   1      -5.603  -4.880   1.926  0.00  0.00     0.033 A 
ATOM     20  C15 <0> d   1      -4.983  -5.392   0.821  0.00  0.00     0.011 A 
ATOM     21  C16 <0> d   1      -3.838  -4.791   0.314  0.00  0.00     0.022 A 
ATOM     22 Br1  <0> d   1      -5.688  -6.930  -0.023  0.00  0.00    -0.051 Br
ENDBRANCH  11  13
BRANCH   5  23
ATOM     23  C19 <0> d   1      -0.099   0.979   2.425  0.00  0.00     0.279 C 
BRANCH  23  24
ATOM     24  N1  <0> d   1      -0.700   1.559   1.216  0.00  0.00    -0.066 N 
ATOM     25  C24 <0> d   1      -0.013   1.086   0.008  0.00  0.00     0.239 C 
ATOM     26  C23 <0> d   1      -0.752   1.593  -1.232  0.00  0.00     0.008 C 
ATOM     27  C22 <0> d   1      -0.788   3.123  -1.209  0.00  0.00     0.011 C 
ATOM     28  C25 <0> d   1      -0.024   1.117  -2.491  0.00  0.00     0.011 C 
ATOM     29  C21 <0> d   1      -1.465   3.591   0.082  0.00  0.00     0.008 C 
ATOM     30  C20 <0> d   1      -0.705   3.026   1.284  0.00  0.00     0.239 C 
ATOM     31  C26 <0> d   1      -1.452   5.120   0.141  0.00  0.00     0.011 C 
ATOM     32  H26 <0> d   1      -1.745   1.222   1.161  0.00  0.00     0.280 HD
ENDBRANCH  23  24
ENDBRANCH   5  23
BRANCH   4  33
ATOM     33  O4  <0> d   1       1.094   3.263   3.557  0.00  0.00    -0.360 OA
ATOM     34  H27 <0> d   1       1.500   2.755   2.670  0.00  0.00     0.217 HD
ENDBRANCH   4  33
TORSDOF 4
