REMARK  7 active torsions:
REMARK  status: ('A' for Active; 'I' for Inactive)
REMARK    1  A    between atoms: C2_2  and  N1_3 
REMARK    2  A    between atoms: N2_6  and  C7_9 
REMARK    3  A    between atoms: C7_9  and  C8_10 
REMARK    4  A    between atoms: C15_18  and  C16_19 
REMARK    5  A    between atoms: C18_21  and  O4_29 
REMARK    6  A    between atoms: C19_22  and  O3_27 
REMARK    7  A    between atoms: C21_24  and  O2_25 
ROOT
ATOM      1  C8  <0> d   1       0.969  -0.555   0.998  0.00  0.00     0.041 A 
ATOM      2  C9  <0> d   1       2.185  -1.219   0.984  0.00  0.00     0.118 A 
ATOM      3  C10 <0> d   1       3.378  -0.513   1.119  0.00  0.00     0.041 A 
ATOM      4  C11 <0> d   1       3.359   0.845   1.268  0.00  0.00     0.021 A 
ATOM      5  C12 <0> d   1       2.142   1.526   1.284  0.00  0.00     0.051 A 
ATOM      6  C13 <0> d   1       0.932   0.825   1.149  0.00  0.00     0.101 A 
ATOM      7  O1  <0> d   1      -0.102   1.693   1.189  0.00  0.00    -0.305 OA
ATOM      8  C14 <0> d   1       0.318   2.969   1.355  0.00  0.00     0.128 A 
ATOM      9  C15 <0> d   1      -0.474   4.071   1.438  0.00  0.00     0.055 C 
ATOM     10  C25 <0> d   1       1.784   2.949   1.424  0.00  0.00     0.218 A 
ATOM     11  O5  <0> d   1       2.537   3.897   1.564  0.00  0.00    -0.284 OA
ATOM     12  O6  <0> d   1       2.214  -2.568   0.837  0.00  0.00    -0.191 OA
ENDROOT
BRANCH   9  13
ATOM     13  C16 <0> d   1      -1.931   3.924   1.483  0.00  0.00     0.003 A 
ATOM     14  C21 <0> d   1      -2.761   5.027   1.214  0.00  0.00     0.081 A 
ATOM     15  C20 <0> d   1      -4.136   4.879   1.254  0.00  0.00     0.077 A 
ATOM     16  C19 <0> d   1      -4.695   3.649   1.567  0.00  0.00     0.104 A 
ATOM     17  C18 <0> d   1      -3.876   2.552   1.840  0.00  0.00     0.102 A 
ATOM     18  C17 <0> d   1      -2.505   2.684   1.799  0.00  0.00     0.054 A 
BRANCH  14  19
ATOM     19  O2  <0> d   1      -2.215   6.232   0.912  0.00  0.00    -0.355 OA
ATOM     20  C22 <0> d   1      -3.119   7.307   0.651  0.00  0.00     0.210 C 
ENDBRANCH  14  19
BRANCH  16  21
ATOM     21  O3  <0> d   1      -6.046   3.512   1.610  0.00  0.00    -0.353 OA
ATOM     22  C23 <0> d   1      -6.825   4.674   1.321  0.00  0.00     0.210 C 
ENDBRANCH  16  21
BRANCH  17  23
ATOM     23  O4  <0> d   1      -4.433   1.349   2.147  0.00  0.00    -0.353 OA
ATOM     24  C24 <0> d   1      -3.542   0.302   2.538  0.00  0.00     0.210 C 
ENDBRANCH  17  23
ENDBRANCH   9  13
BRANCH   1  25
ATOM     25  C7  <0> d   1      -0.315  -1.332   0.850  0.00  0.00     0.317 C 
BRANCH  25  26
ATOM     26  N2  <0> d   1      -0.589  -1.557  -0.576  0.00  0.00     0.096 N 
ATOM     27  C4  <0> d   1      -1.598  -2.609  -0.758  0.00  0.00     0.300 C 
ATOM     28  C3  <0> d   1      -1.797  -2.869  -2.253  0.00  0.00     0.265 C 
ATOM     29  N1  <0> d   1      -2.213  -1.623  -2.912  0.00  0.00    -0.068 N 
ATOM     30  C6  <0> d   1      -1.204  -0.571  -2.730  0.00  0.00     0.265 C 
ATOM     31  H30 <0> d   1      -3.147  -1.284  -2.439  0.00  0.00     0.280 HD
ATOM     32  C5  <0> d   1      -1.005  -0.312  -1.235  0.00  0.00     0.300 C 
BRANCH  29  33
ATOM     33  C2  <0> d   1      -2.488  -1.849  -4.338  0.00  0.00     0.230 C 
ATOM     34  C1  <0> d   1      -3.152  -0.605  -4.932  0.00  0.00     0.034 C 
ENDBRANCH  29  33
ENDBRANCH  25  26
ENDBRANCH   1  25
TORSDOF 7
