REMARK  7 active torsions:
REMARK  status: ('A' for Active; 'I' for Inactive)
REMARK    1  A    between atoms: C3_3  and  C19_26 
REMARK    2  A    between atoms: C4_4  and  C5_8 
REMARK    3  A    between atoms: C8_11  and  O2_15 
REMARK    4  A    between atoms: O2_15  and  C11_16 
REMARK    5  A    between atoms: C11_16  and  C12_17 
REMARK    6  A    between atoms: C12_17  and  N3_18 
REMARK    7  A    between atoms: C22_29  and  O4_32 
ROOT
ATOM      1  C5  <0> d   1      -0.154  -3.232   1.659  0.00  0.00     0.032 A 
ATOM      2  C6  <0> d   1      -0.259  -2.997   3.029  0.00  0.00     0.019 A 
ATOM      3  C7  <0> d   1      -0.347  -4.059   3.905  0.00  0.00     0.038 A 
ATOM      4  C8  <0> d   1      -0.332  -5.363   3.426  0.00  0.00     0.071 A 
ATOM      5  C9  <0> d   1      -0.227  -5.604   2.065  0.00  0.00     0.077 A 
ATOM      6  C10 <0> d   1      -0.144  -4.545   1.178  0.00  0.00     0.122 A 
ATOM      7  O1  <0> d   1      -0.047  -4.780  -0.157  0.00  0.00    -0.191 OA
ENDROOT
BRANCH   1   8
ATOM      8  C4  <0> d   1      -0.059  -2.093   0.715  0.00  0.00     0.103 A 
ATOM      9  C3  <0> d   1       0.796  -0.970   0.845  0.00  0.00     0.029 A 
ATOM     10  C2  <0> d   1       0.575  -0.160  -0.228  0.00  0.00     0.037 A 
ATOM     11  C1  <0> d   1       1.263   1.151  -0.508  0.00  0.00     0.070 C 
ATOM     12  N2  <0> d   1      -0.375  -0.738  -0.993  0.00  0.00    -0.281 N 
ATOM     13  N1  <0> d   1      -0.754  -1.944  -0.392  0.00  0.00    -0.173 NA
ATOM     14  H1  <0> d   1      -0.733  -0.380  -1.820  0.00  0.00     0.189 HD
BRANCH   9  15
ATOM     15  C19 <0> d   1       1.758  -0.721   1.948  0.00  0.00    -0.021 A 
ATOM     16  C24 <0> d   1       1.551   0.339   2.828  0.00  0.00     0.015 A 
ATOM     17  C23 <0> d   1       2.443   0.563   3.856  0.00  0.00     0.037 A 
ATOM     18  C22 <0> d   1       3.552  -0.258   4.006  0.00  0.00     0.068 A 
ATOM     19  C21 <0> d   1       3.764  -1.311   3.127  0.00  0.00     0.037 A 
ATOM     20  C20 <0> d   1       2.872  -1.544   2.101  0.00  0.00     0.015 A 
BRANCH  18  21
ATOM     21  O4  <0> d   1       4.433  -0.031   5.017  0.00  0.00    -0.356 OA
ATOM     22  C25 <0> d   1       4.154   1.069   5.885  0.00  0.00     0.210 C 
ENDBRANCH  18  21
ENDBRANCH   9  15
ENDBRANCH   1   8
BRANCH   4  23
ATOM     23  O2  <0> d   1      -0.419  -6.404   4.295  0.00  0.00    -0.349 OA
BRANCH  23  24
ATOM     24  C11 <0> d   1      -0.398  -7.719   3.735  0.00  0.00     0.206 C 
BRANCH  24  25
ATOM     25  C12 <0> d   1      -0.505  -8.753   4.858  0.00  0.00     0.299 C 
BRANCH  25  26
ATOM     26  N3  <0> d   1      -1.815  -8.630   5.512  0.00  0.00     0.095 N 
ATOM     27  C16 <0> d   1      -1.868  -9.438   6.740  0.00  0.00     0.303 C 
ATOM     28  C15 <0> d   1      -3.224  -9.235   7.419  0.00  0.00     0.146 C 
ATOM     29  O3  <0> d   1      -4.267  -9.576   6.502  0.00  0.00    -0.378 OA
ATOM     30  C17 <0> d   1      -3.317 -10.133   8.655  0.00  0.00     0.041 C 
ATOM     31  C14 <0> d   1      -4.246  -8.808   5.295  0.00  0.00     0.146 C 
ATOM     32  C13 <0> d   1      -2.900  -9.007   4.594  0.00  0.00     0.303 C 
ATOM     33  C18 <0> d   1      -5.375  -9.272   4.374  0.00  0.00     0.041 C 
ENDBRANCH  25  26
ENDBRANCH  24  25
ENDBRANCH  23  24
ENDBRANCH   4  23
TORSDOF 7
