REMARK  6 active torsions:
REMARK  status: ('A' for Active; 'I' for Inactive)
REMARK    1  A    between atoms: C4_4  and  C7_7 
REMARK    2  A    between atoms: C9_12  and  C10_13 
REMARK    3  A    between atoms: C13_16  and  O2_20 
REMARK    4  A    between atoms: O2_20  and  C16_21 
REMARK    5  A    between atoms: C16_21  and  C17_22 
REMARK    6  A    between atoms: C17_22  and  N3_23 
ROOT
ATOM      1  C10 <0> d   1       2.411  -1.405   2.004  0.00  0.00     0.032 A 
ATOM      2  C11 <0> d   1       1.063  -1.147   2.246  0.00  0.00     0.019 A 
ATOM      3  C12 <0> d   1       0.423  -1.760   3.303  0.00  0.00     0.038 A 
ATOM      4  C13 <0> d   1       1.118  -2.634   4.128  0.00  0.00     0.071 A 
ATOM      5  C14 <0> d   1       2.460  -2.896   3.894  0.00  0.00     0.077 A 
ATOM      6  C15 <0> d   1       3.109  -2.290   2.832  0.00  0.00     0.122 A 
ATOM      7  O1  <0> d   1       4.422  -2.550   2.598  0.00  0.00    -0.191 OA
ENDROOT
BRANCH   1   8
ATOM      8  C9  <0> d   1       3.101  -0.747   0.869  0.00  0.00     0.102 A 
ATOM      9  C7  <0> d   1       2.617  -0.651  -0.461  0.00  0.00     0.022 A 
ATOM     10  C8  <0> d   1       3.547   0.031  -1.187  0.00  0.00     0.124 A 
ATOM     11  N1  <0> d   1       4.567   0.344  -0.361  0.00  0.00    -0.288 N 
ATOM     12  H1  <0> d   1       5.369   0.830  -0.610  0.00  0.00     0.188 HD
ATOM     13  N2  <0> d   1       4.273  -0.152   0.914  0.00  0.00    -0.174 NA
BRANCH   9  14
ATOM     14  C4  <0> d   1       1.331  -1.190  -0.967  0.00  0.00    -0.022 A 
ATOM     15  C3  <0> d   1       0.421  -0.345  -1.601  0.00  0.00     0.012 A 
ATOM     16  C2  <0> d   1      -0.774  -0.852  -2.071  0.00  0.00     0.001 A 
ATOM     17  C1  <0> d   1      -1.069  -2.194  -1.914  0.00  0.00     0.000 A 
ATOM     18  C6  <0> d   1      -0.169  -3.036  -1.286  0.00  0.00     0.001 A 
ATOM     19  C5  <0> d   1       1.029  -2.541  -0.812  0.00  0.00     0.012 A 
ENDBRANCH   9  14
ENDBRANCH   1   8
BRANCH   4  20
ATOM     20  O2  <0> d   1       0.482  -3.235   5.168  0.00  0.00    -0.349 OA
BRANCH  20  21
ATOM     21  C16 <0> d   1       1.257  -4.122   5.977  0.00  0.00     0.206 C 
BRANCH  21  22
ATOM     22  C17 <0> d   1       0.377  -4.698   7.088  0.00  0.00     0.299 C 
BRANCH  22  23
ATOM     23  N3  <0> d   1      -0.691  -5.514   6.495  0.00  0.00     0.094 N 
ATOM     24  C21 <0> d   1      -0.169  -6.808   6.032  0.00  0.00     0.298 C 
ATOM     25  C20 <0> d   1      -1.300  -7.600   5.369  0.00  0.00     0.198 C 
ATOM     26  O3  <0> d   1      -2.378  -7.750   6.296  0.00  0.00    -0.388 OA
ATOM     27  C19 <0> d   1      -2.910  -6.509   6.767  0.00  0.00     0.198 C 
ATOM     28  C18 <0> d   1      -1.796  -5.706   7.445  0.00  0.00     0.298 C 
ENDBRANCH  22  23
ENDBRANCH  21  22
ENDBRANCH  20  21
ENDBRANCH   4  20
TORSDOF 6
