REMARK  3 active torsions:
REMARK  status: ('A' for Active; 'I' for Inactive)
REMARK    1  A    between atoms: C6_6  and  C7_7 
REMARK    2  A    between atoms: C15_17  and  C16_18 
REMARK    3  A    between atoms: C16_18  and  N1_19 
ROOT
ATOM      1  C7  <0> d   1      -3.688  -0.812   0.133  0.00  0.00     0.048 A 
ATOM      2  C8  <0> d   1      -3.889  -1.794  -0.783  0.00  0.00     0.159 A 
ATOM      3  O1  <0> d   1      -5.024  -2.495  -0.848  0.00  0.00    -0.320 OA
ATOM      4  C9  <0> d   1      -6.071  -2.286  -0.024  0.00  0.00     0.100 A 
ATOM      5  C10 <0> d   1      -6.003  -1.295   0.971  0.00  0.00     0.050 A 
ATOM      6  C11 <0> d   1      -4.767  -0.500   1.085  0.00  0.00     0.197 A 
ATOM      7  O2  <0> d   1      -4.645   0.374   1.925  0.00  0.00    -0.286 OA
ATOM      8  C12 <0> d   1      -7.085  -1.078   1.825  0.00  0.00     0.021 A 
ATOM      9  C13 <0> d   1      -8.216  -1.833   1.692  0.00  0.00     0.041 A 
ATOM     10  C14 <0> d   1      -8.292  -2.817   0.710  0.00  0.00     0.118 A 
ATOM     11  C15 <0> d   1      -7.227  -3.045  -0.145  0.00  0.00     0.039 A 
ATOM     12  O3  <0> d   1      -9.422  -3.560   0.589  0.00  0.00    -0.191 OA
ENDROOT
BRANCH   1  13
ATOM     13  C6  <0> d   1      -2.407  -0.065   0.171  0.00  0.00    -0.017 A 
ATOM     14  C1  <0> d   1      -2.412   1.328   0.189  0.00  0.00     0.015 A 
ATOM     15  C2  <0> d   1      -1.219   2.022   0.218  0.00  0.00     0.040 A 
ATOM     16  C3  <0> d   1      -0.012   1.337   0.237  0.00  0.00     0.102 A 
ATOM     17  O5  <0> d   1       1.153   2.041   0.266  0.00  0.00    -0.346 OA
ATOM     18  C4  <0> d   1      -0.002  -0.055   0.222  0.00  0.00     0.102 A 
ATOM     19  C22 <0> d   1       2.329   1.324   0.657  0.00  0.00     0.202 C 
ATOM     20  C21 <0> d   1       2.353  -0.009  -0.102  0.00  0.00     0.202 C 
ATOM     21  O4  <0> d   1       1.173  -0.743   0.241  0.00  0.00    -0.346 OA
ATOM     22  C5  <0> d   1      -1.196  -0.754   0.188  0.00  0.00     0.052 A 
ENDBRANCH   1  13
BRANCH  11  23
ATOM     23  C16 <0> d   1      -7.323  -4.112  -1.205  0.00  0.00     0.279 C 
BRANCH  23  24
ATOM     24  N1  <0> d   1      -8.016  -3.573  -2.382  0.00  0.00    -0.067 N 
ATOM     25  C20 <0> d   1      -8.041  -4.562  -3.482  0.00  0.00     0.235 C 
ATOM     26  C19 <0> d   1      -7.940  -3.774  -4.801  0.00  0.00     0.029 C 
ATOM     27  C18 <0> d   1      -7.824  -2.291  -4.378  0.00  0.00     0.029 C 
ATOM     28  C17 <0> d   1      -7.303  -2.386  -2.922  0.00  0.00     0.235 C 
ATOM     29  H21 <0> d   1      -9.031  -3.321  -2.043  0.00  0.00     0.280 HD
ENDBRANCH  23  24
ENDBRANCH  11  23
TORSDOF 3
