REMARK  5 active torsions:
REMARK  status: ('A' for Active; 'I' for Inactive)
REMARK    1  A    between atoms: C8_10  and  C9_11 
REMARK    2  A    between atoms: C10_12  and  C18_23 
REMARK    3  A    between atoms: C13_16  and  O3_22 
REMARK    4  A    between atoms: C18_23  and  C19_24 
REMARK    5  A    between atoms: C19_24  and  C20_25 
ROOT
ATOM      1  C9  <0> d   1      -2.465   6.567  -0.047  0.00  0.00     0.089 A 
ATOM      2  C10 <0> d   1      -1.810   7.750   0.116  0.00  0.00     0.072 A 
ATOM      3  O1  <0> d   1      -2.447   8.890   0.389  0.00  0.00    -0.313 OA
ATOM      4  C11 <0> d   1      -3.785   8.978   0.526  0.00  0.00     0.092 A 
ATOM      5  C12 <0> d   1      -4.386  10.197   0.810  0.00  0.00     0.074 A 
ATOM      6  C13 <0> d   1      -5.762  10.270   0.948  0.00  0.00     0.068 A 
ATOM      7  C14 <0> d   1      -6.551   9.131   0.804  0.00  0.00     0.037 A 
ATOM      8  C15 <0> d   1      -5.975   7.924   0.525  0.00  0.00     0.021 A 
ATOM      9  C16 <0> d   1      -4.590   7.835   0.384  0.00  0.00     0.049 A 
ATOM     10  C17 <0> d   1      -3.935   6.550   0.076  0.00  0.00     0.201 A 
ATOM     11  O2  <0> d   1      -4.576   5.523  -0.064  0.00  0.00    -0.286 OA
ENDROOT
BRANCH   1  12
ATOM     12  C8  <0> d   1      -1.720   5.329  -0.347  0.00  0.00     0.125 A 
ATOM     13  N1  <0> d   1      -1.966   4.499  -1.408  0.00  0.00    -0.335 N 
ATOM     14  C1  <0> d   1      -2.999   4.679  -2.431  0.00  0.00     0.158 C 
ATOM     15  C2  <0> d   1      -1.058   3.460  -1.334  0.00  0.00     0.062 A 
ATOM     16  C7  <0> d   1      -0.271   3.707  -0.195  0.00  0.00     0.060 A 
ATOM     17  C3  <0> d   1      -0.812   2.337  -2.112  0.00  0.00     0.032 A 
ATOM     18  C6  <0> d   1       0.749   2.812   0.143  0.00  0.00     0.032 A 
ATOM     19  N2  <0> d   1      -0.722   4.858   0.362  0.00  0.00    -0.340 N 
ATOM     20  C5  <0> d   1       0.972   1.709  -0.632  0.00  0.00     0.002 A 
ATOM     21  C4  <0> d   1       0.195   1.465  -1.756  0.00  0.00     0.002 A 
ATOM     22  H16 <0> d   1      -0.249   5.250   1.274  0.00  0.00     0.167 HD
ENDBRANCH   1  12
BRANCH   2  23
ATOM     23  C18 <0> d   1      -0.309   7.772  -0.016  0.00  0.00     0.077 C 
BRANCH  23  24
ATOM     24  C19 <0> d   1       0.071   7.910  -1.491  0.00  0.00     0.119 C 
BRANCH  24  25
ATOM     25  C20 <0> d   1       1.572   7.931  -1.623  0.00  0.00     0.172 C 
ATOM     26  O4  <0> d   1       2.266   7.845  -0.638  0.00  0.00    -0.648 OA
ATOM     27  O5  <0> d   1       2.138   8.046  -2.835  0.00  0.00    -0.648 OA
ENDBRANCH  24  25
ENDBRANCH  23  24
ENDBRANCH   2  23
BRANCH   6  28
ATOM     28  O3  <0> d   1      -6.348  11.463   1.225  0.00  0.00    -0.361 OA
ATOM     29  H11 <0> d   1      -7.440  11.527   1.336  0.00  0.00     0.217 HD
ENDBRANCH   6  28
TORSDOF 5
