REMARK  9 active torsions:
REMARK  status: ('A' for Active; 'I' for Inactive)
REMARK    1  A    between atoms: O1_2  and  C2_3 
REMARK    2  A    between atoms: C4_5  and  C10_13 
REMARK    3  A    between atoms: C5_6  and  O3_11 
REMARK    4  A    between atoms: C7_8  and  O2_9 
REMARK    5  A    between atoms: C17_21  and  C19_24 
REMARK    6  A    between atoms: C19_24  and  N1_25 
REMARK    7  A    between atoms: N2_28  and  C24_31 
REMARK    8  A    between atoms: C24_31  and  C25_32 
REMARK    9  A    between atoms: C25_32  and  O6_33 
ROOT
ATOM      1  C10 <0> d   1      -0.129   2.213  -0.010  0.00  0.00     0.055 C 
ATOM      2  C11 <0> d   1       0.727   1.178   0.201  0.00  0.00     0.128 A 
ATOM      3  C12 <0> d   1       2.180   1.279   0.385  0.00  0.00     0.218 A 
ATOM      4  O4  <0> d   1       2.864   2.288   0.381  0.00  0.00    -0.284 OA
ATOM      5  C13 <0> d   1       2.627  -0.113   0.575  0.00  0.00     0.051 A 
ATOM      6  C14 <0> d   1       3.877  -0.693   0.795  0.00  0.00     0.021 A 
ATOM      7  C15 <0> d   1       3.984  -2.048   0.938  0.00  0.00     0.041 A 
ATOM      8  C16 <0> d   1       2.849  -2.850   0.862  0.00  0.00     0.118 A 
ATOM      9  C17 <0> d   1       1.601  -2.289   0.644  0.00  0.00     0.039 A 
ATOM     10  C18 <0> d   1       1.475  -0.913   0.497  0.00  0.00     0.101 A 
ATOM     11  O5  <0> d   1       0.395  -0.133   0.275  0.00  0.00    -0.305 OA
ATOM     12  O7  <0> d   1       2.965  -4.195   1.005  0.00  0.00    -0.191 OA
ENDROOT
BRANCH   1  13
ATOM     13  C4  <0> d   1      -1.575   1.976  -0.024  0.00  0.00     0.003 A 
ATOM     14  C3  <0> d   1      -2.100   0.797   0.524  0.00  0.00     0.054 A 
ATOM     15  C2  <0> d   1      -3.462   0.580   0.508  0.00  0.00     0.102 A 
ATOM     16  C7  <0> d   1      -4.318   1.531  -0.051  0.00  0.00     0.104 A 
ATOM     17  C6  <0> d   1      -3.805   2.700  -0.594  0.00  0.00     0.077 A 
ATOM     18  C5  <0> d   1      -2.442   2.933  -0.581  0.00  0.00     0.081 A 
BRANCH  15  19
ATOM     19  O1  <0> d   1      -3.973  -0.563   1.039  0.00  0.00    -0.353 OA
ATOM     20  C1  <0> d   1      -3.056  -1.440   1.696  0.00  0.00     0.210 C 
ENDBRANCH  15  19
BRANCH  16  21
ATOM     21  O2  <0> d   1      -5.658   1.311  -0.062  0.00  0.00    -0.353 OA
ATOM     22  C8  <0> d   1      -6.477   2.325  -0.649  0.00  0.00     0.210 C 
ENDBRANCH  16  21
BRANCH  18  23
ATOM     23  O3  <0> d   1      -1.942   4.079  -1.108  0.00  0.00    -0.355 OA
ATOM     24  C9  <0> d   1      -2.882   5.005  -1.656  0.00  0.00     0.210 C 
ENDBRANCH  18  23
ENDBRANCH   1  13
BRANCH   9  25
ATOM     25  C19 <0> d   1       0.382  -3.170   0.564  0.00  0.00     0.279 C 
BRANCH  25  26
ATOM     26  N1  <0> d   1       0.288  -3.757  -0.779  0.00  0.00    -0.064 N 
ATOM     27  C23 <0> d   1      -0.628  -4.905  -0.790  0.00  0.00     0.265 C 
ATOM     28  C22 <0> d   1      -0.637  -5.535  -2.185  0.00  0.00     0.300 C 
ATOM     29  N2  <0> d   1      -1.048  -4.527  -3.172  0.00  0.00     0.093 N 
ATOM     30  C21 <0> d   1      -0.132  -3.379  -3.162  0.00  0.00     0.300 C 
ATOM     31  C20 <0> d   1      -0.123  -2.749  -1.767  0.00  0.00     0.265 C 
ATOM     32  H30 <0> d   1       1.289  -4.118  -1.060  0.00  0.00     0.280 HD
BRANCH  29  33
ATOM     33  C24 <0> d   1      -1.142  -5.114  -4.516  0.00  0.00     0.298 C 
BRANCH  33  34
ATOM     34  C25 <0> d   1      -2.430  -5.931  -4.627  0.00  0.00     0.194 C 
BRANCH  34  35
ATOM     35  O6  <0> d   1      -3.550  -5.048  -4.709  0.00  0.00    -0.399 OA
ATOM     36  H29 <0> d   1      -4.568  -5.456  -4.794  0.00  0.00     0.209 HD
ENDBRANCH  34  35
ENDBRANCH  33  34
ENDBRANCH  29  33
ENDBRANCH  25  26
ENDBRANCH   9  25
TORSDOF 9
