REMARK  3 active torsions:
REMARK  status: ('A' for Active; 'I' for Inactive)
REMARK    1  A    between atoms: C3_3  and  C12_17 
REMARK    2  A    between atoms: C4_4  and  C5_8 
REMARK    3  A    between atoms: C8_11  and  O2_15 
ROOT
ATOM      1  C1  <0> d   1       0.212   1.496   0.015  0.00  0.00     0.070 C 
ATOM      2  C2  <0> d   1       0.101  -0.007   0.004  0.00  0.00     0.037 A 
ATOM      3  C3  <0> d   1      -0.029  -0.810   1.097  0.00  0.00     0.029 A 
ATOM      4  C4  <0> d   1      -0.099  -2.149   0.636  0.00  0.00     0.103 A 
ATOM      5  N1  <0> d   1      -0.013  -2.128  -0.676  0.00  0.00    -0.173 NA
ATOM      6  H1  <0> d   1       0.182  -0.492  -2.008  0.00  0.00     0.189 HD
ATOM      7  N2  <0> d   1       0.106  -0.796  -1.090  0.00  0.00    -0.281 N 
ENDROOT
BRANCH   4   8
ATOM      8  C5  <0> d   1      -0.243  -3.357   1.483  0.00  0.00     0.032 A 
ATOM      9  C10 <0> d   1       0.580  -4.467   1.266  0.00  0.00     0.122 A 
ATOM     10  C9  <0> d   1       0.444  -5.591   2.064  0.00  0.00     0.077 A 
ATOM     11  O1  <0> d   1       1.513  -4.441   0.280  0.00  0.00    -0.191 OA
ATOM     12  C8  <0> d   1      -0.513  -5.618   3.067  0.00  0.00     0.070 A 
ATOM     13  C7  <0> d   1      -1.334  -4.518   3.279  0.00  0.00     0.038 A 
ATOM     14  C6  <0> d   1      -1.202  -3.393   2.494  0.00  0.00     0.019 A 
BRANCH  12  15
ATOM     15  O2  <0> d   1      -0.647  -6.724   3.845  0.00  0.00    -0.356 OA
ATOM     16  C11 <0> d   1       0.229  -7.820   3.573  0.00  0.00     0.210 C 
ENDBRANCH  12  15
ENDBRANCH   4   8
BRANCH   3  17
ATOM     17  C12 <0> d   1      -0.087  -0.364   2.511  0.00  0.00    -0.021 A 
ATOM     18  C17 <0> d   1      -1.174   0.379   2.966  0.00  0.00     0.014 A 
ATOM     19  C16 <0> d   1      -1.226   0.787   4.283  0.00  0.00     0.024 A 
ATOM     20  C15 <0> d   1      -0.194   0.468   5.150  0.00  0.00     0.034 A 
ATOM     21  C14 <0> d   1       0.891  -0.265   4.701  0.00  0.00     0.024 A 
ATOM     22 Cl1  <0> d   1      -0.262   0.990   6.804  0.00  0.00    -0.084 Cl
ATOM     23  C13 <0> d   1       0.949  -0.682   3.387  0.00  0.00     0.014 A 
ENDBRANCH   3  17
TORSDOF 3
