REMARK  6 active torsions:
REMARK  status: ('A' for Active; 'I' for Inactive)
REMARK    1  A    between atoms: C8_10  and  C12_15 
REMARK    2  A    between atoms: C9_11  and  O3_13 
REMARK    3  A    between atoms: C12_15  and  C13_16 
REMARK    4  A    between atoms: C13_16  and  C14_17 
REMARK       I    between atoms: C14_17  and  N1_19 
REMARK    5  A    between atoms: N1_19  and  C15_20 
REMARK    6  A    between atoms: C19_25  and  S2_29 
ROOT
ATOM      1  C14 <0> d   1       1.491   0.710   6.807  0.00  0.00     0.223 C 
ATOM      2  O4  <0> d   1       0.445   1.059   7.310  0.00  0.00    -0.273 OA
ATOM      3  N1  <0> d   1       2.657   0.950   7.440  0.00  0.00    -0.306 N 
ATOM      4  H14 <0> d   1       3.494   0.670   7.038  0.00  0.00     0.171 HD
ENDROOT
BRANCH   1   5
ATOM      5  C13 <0> d   1       1.489   0.007   5.474  0.00  0.00     0.108 C 
BRANCH   5   6
ATOM      6  C12 <0> d   1       0.049  -0.139   4.978  0.00  0.00     0.051 C 
BRANCH   6   7
ATOM      7  C8  <0> d   1       0.046  -0.842   3.644  0.00  0.00    -0.023 A 
ATOM      8  C7  <0> d   1       0.026  -0.111   2.492  0.00  0.00     0.024 A 
ATOM      9  C6  <0> d   1       0.024  -0.763   1.254  0.00  0.00     0.005 A 
ATOM     10  C2  <0> d   1       0.002  -0.004   0.002  0.00  0.00    -0.043 A 
ATOM     11  C5  <0> d   1       0.038  -2.169   1.199  0.00  0.00     0.092 A 
ATOM     12  C1  <0> d   1      -0.018   1.503   0.010  0.00  0.00     0.049 C 
ATOM     13  C3  <0> d   1       0.006  -0.695  -1.167  0.00  0.00     0.090 A 
ATOM     14  C4  <0> d   1       0.026  -2.105  -1.149  0.00  0.00     0.288 A 
ATOM     15  O1  <0> d   1       0.030  -2.712  -2.204  0.00  0.00    -0.260 OA
ATOM     16  O2  <0> d   1       0.041  -2.795   0.003  0.00  0.00    -0.275 OA
ATOM     17  C10 <0> d   1       0.053  -2.897   2.379  0.00  0.00     0.075 A 
ATOM     18  C9  <0> d   1       0.066  -2.234   3.596  0.00  0.00     0.077 A 
BRANCH  18  19
ATOM     19  O3  <0> d   1       0.086  -2.948   4.751  0.00  0.00    -0.355 OA
ATOM     20  C11 <0> d   1       0.105  -4.372   4.633  0.00  0.00     0.210 C 
ENDBRANCH  18  19
ENDBRANCH   6   7
ENDBRANCH   5   6
ENDBRANCH   1   5
BRANCH   3  21
ATOM     21  C15 <0> d   1       2.659   1.596   8.666  0.00  0.00     0.174 A 
ATOM     22  S1  <0> d   1       4.049   2.030   9.701  0.00  0.00    -0.050 SA
ATOM     23  C21 <0> d   1       3.122   2.797  11.009  0.00  0.00     0.038 A 
ATOM     24  C16 <0> d   1       1.791   2.657  10.556  0.00  0.00     0.077 A 
ATOM     25  C20 <0> d   1       3.440   3.401  12.200  0.00  0.00     0.044 A 
ATOM     26  N2  <0> d   1       1.640   2.040   9.364  0.00  0.00    -0.223 NA
ATOM     27  C17 <0> d   1       0.785   3.178  11.403  0.00  0.00     0.034 A 
ATOM     28  C18 <0> d   1       1.112   3.780  12.590  0.00  0.00     0.026 A 
ATOM     29  C19 <0> d   1       2.431   3.900  13.003  0.00  0.00     0.060 A 
BRANCH  29  30
ATOM     30  S2  <0> d   1       2.817   4.681  14.535  0.00  0.00     0.171 S 
ATOM     31  O5  <0> d   1       4.138   5.177  14.367  0.00  0.00    -0.223 OA
ATOM     32  O6  <0> d   1       1.734   5.570  14.771  0.00  0.00    -0.223 OA
ATOM     33  C22 <0> d   1       2.803   3.341  15.757  0.00  0.00     0.167 C 
ENDBRANCH  29  30
ENDBRANCH   3  21
TORSDOF 6
