REMARK  10 active torsions:
REMARK  status: ('A' for Active; 'I' for Inactive)
REMARK    1  A    between atoms: C2_2  and  C3_3 
REMARK    2  A    between atoms: C6_6  and  C9_9 
REMARK    3  A    between atoms: C16_17  and  C18_20 
REMARK    4  A    between atoms: C18_20  and  N1_21 
REMARK    5  A    between atoms: N1_21  and  C19_22 
REMARK    6  A    between atoms: N1_21  and  C22_26 
REMARK    7  A    between atoms: C19_22  and  C20_23 
REMARK    8  A    between atoms: C20_23  and  O3_24 
REMARK    9  A    between atoms: C22_26  and  C23_27 
REMARK   10  A    between atoms: C23_27  and  O4_28 
ROOT
ATOM      1  C9  <0> d   1      -4.867   0.514   0.398  0.00  0.00     0.053 C 
ATOM      2  C10 <0> d   1      -5.736   0.011  -0.513  0.00  0.00     0.127 A 
ATOM      3  C11 <0> d   1      -7.191  -0.129  -0.342  0.00  0.00     0.218 A 
ATOM      4  O1  <0> d   1      -7.861   0.177   0.629  0.00  0.00    -0.284 OA
ATOM      5  C12 <0> d   1      -7.657  -0.720  -1.609  0.00  0.00     0.051 A 
ATOM      6  C13 <0> d   1      -8.915  -1.097  -2.081  0.00  0.00     0.021 A 
ATOM      7  C14 <0> d   1      -9.041  -1.632  -3.332  0.00  0.00     0.041 A 
ATOM      8  C15 <0> d   1      -7.917  -1.802  -4.136  0.00  0.00     0.118 A 
ATOM      9  C16 <0> d   1      -6.662  -1.433  -3.680  0.00  0.00     0.039 A 
ATOM     10  C17 <0> d   1      -6.517  -0.886  -2.411  0.00  0.00     0.101 A 
ATOM     11  O2  <0> d   1      -5.425  -0.449  -1.747  0.00  0.00    -0.305 OA
ATOM     12  O5  <0> d   1      -8.053  -2.336  -5.377  0.00  0.00    -0.191 OA
ENDROOT
BRANCH   9  13
ATOM     13  C18 <0> d   1      -5.455  -1.623  -4.562  0.00  0.00     0.279 C 
BRANCH  13  14
ATOM     14  N1  <0> d   1      -5.245  -0.417  -5.373  0.00  0.00    -0.063 N 
ATOM     15  H29 <0> d   1      -6.088  -0.206  -5.886  0.00  0.00     0.280 HD
BRANCH  14  16
ATOM     16  C19 <0> d   1      -4.911   0.712  -4.495  0.00  0.00     0.261 C 
BRANCH  16  17
ATOM     17  C20 <0> d   1      -4.840   1.998  -5.322  0.00  0.00     0.194 C 
BRANCH  17  18
ATOM     18  O3  <0> d   1      -6.130   2.289  -5.862  0.00  0.00    -0.394 OA
ATOM     19  C21 <0> d   1      -6.151   3.412  -6.745  0.00  0.00     0.201 C 
ENDBRANCH  17  18
ENDBRANCH  16  17
ENDBRANCH  14  16
BRANCH  14  20
ATOM     20  C22 <0> d   1      -4.143  -0.646  -6.317  0.00  0.00     0.261 C 
BRANCH  20  21
ATOM     21  C23 <0> d   1      -4.553  -1.717  -7.330  0.00  0.00     0.194 C 
BRANCH  21  22
ATOM     22  O4  <0> d   1      -5.648  -1.237  -8.112  0.00  0.00    -0.394 OA
ATOM     23  C24 <0> d   1      -6.184  -2.205  -9.018  0.00  0.00     0.201 C 
ENDBRANCH  21  22
ENDBRANCH  20  21
ENDBRANCH  14  20
ENDBRANCH  13  14
ENDBRANCH   9  13
BRANCH   1  24
ATOM     24  C6  <0> d   1      -3.452   0.696   0.042  0.00  0.00    -0.033 A 
ATOM     25  C5  <0> d   1      -2.971   0.232  -1.188  0.00  0.00     0.012 A 
ATOM     26  C4  <0> d   1      -1.644   0.408  -1.515  0.00  0.00     0.008 A 
ATOM     27  C3  <0> d   1      -0.787   1.040  -0.631  0.00  0.00    -0.059 A 
ATOM     28  C8  <0> d   1      -1.253   1.496   0.590  0.00  0.00     0.008 A 
ATOM     29  C7  <0> d   1      -2.579   1.334   0.930  0.00  0.00     0.012 A 
BRANCH  27  30
ATOM     30  C2  <0> d   1       0.663   1.227  -0.997  0.00  0.00     0.034 C 
ATOM     31  C1  <0> d   1       1.469   0.016  -0.523  0.00  0.00     0.010 C 
ENDBRANCH  27  30
ENDBRANCH   1  24
TORSDOF 10
