REMARK  6 active torsions:
REMARK  status: ('A' for Active; 'I' for Inactive)
REMARK    1  A    between atoms: C6_6  and  C7_7 
REMARK    2  A    between atoms: C13_13  and  C16_18 
REMARK    3  A    between atoms: C16_18  and  N1_19 
REMARK    4  A    between atoms: N2_22  and  C21_25 
REMARK    5  A    between atoms: C21_25  and  C22_26 
REMARK    6  A    between atoms: C22_26  and  O3_27 
ROOT
ATOM      1  C7  <0> d   1      -1.206   1.973   0.102  0.00  0.00     0.051 A 
ATOM      2  C8  <0> d   1      -0.979   0.624   0.057  0.00  0.00     0.032 A 
ATOM      3  C9  <0> d   1       0.358   0.155   0.005  0.00  0.00    -0.000 A 
ATOM      4  C10 <0> d   1       0.622  -1.222  -0.048  0.00  0.00     0.017 A 
ATOM      5  C11 <0> d   1       1.910  -1.667  -0.091  0.00  0.00     0.041 A 
ATOM      6  C12 <0> d   1       2.970  -0.762  -0.084  0.00  0.00     0.118 A 
ATOM      7  C13 <0> d   1       2.730   0.600  -0.031  0.00  0.00     0.039 A 
ATOM      8  C14 <0> d   1       1.425   1.072   0.013  0.00  0.00     0.100 A 
ATOM      9  O1  <0> d   1       1.191   2.402   0.064  0.00  0.00    -0.273 OA
ATOM     10  C15 <0> d   1      -0.062   2.887   0.108  0.00  0.00     0.299 A 
ATOM     11  O2  <0> d   1      -0.245   4.089   0.152  0.00  0.00    -0.259 OA
ATOM     12  O4  <0> d   1       4.247  -1.220  -0.127  0.00  0.00    -0.191 OA
ENDROOT
BRANCH   7  13
ATOM     13  C16 <0> d   1       3.883   1.570  -0.023  0.00  0.00     0.279 C 
BRANCH  13  14
ATOM     14  N1  <0> d   1       4.228   1.933  -1.404  0.00  0.00    -0.064 N 
ATOM     15  C20 <0> d   1       5.183   3.049  -1.432  0.00  0.00     0.265 C 
ATOM     16  C19 <0> d   1       5.455   3.448  -2.884  0.00  0.00     0.300 C 
ATOM     17  N2  <0> d   1       5.982   2.289  -3.618  0.00  0.00     0.093 N 
ATOM     18  C18 <0> d   1       5.027   1.173  -3.590  0.00  0.00     0.300 C 
ATOM     19  C17 <0> d   1       4.755   0.774  -2.137  0.00  0.00     0.265 C 
ATOM     20  H23 <0> d   1       3.306   2.262  -1.905  0.00  0.00     0.280 HD
BRANCH  17  21
ATOM     21  C21 <0> d   1       6.326   2.652  -4.999  0.00  0.00     0.298 C 
BRANCH  21  22
ATOM     22  C22 <0> d   1       7.636   3.443  -5.007  0.00  0.00     0.194 C 
BRANCH  22  23
ATOM     23  O3  <0> d   1       8.701   2.605  -4.552  0.00  0.00    -0.399 OA
ATOM     24  H22 <0> d   1       9.725   3.002  -4.489  0.00  0.00     0.209 HD
ENDBRANCH  22  23
ENDBRANCH  21  22
ENDBRANCH  17  21
ENDBRANCH  13  14
ENDBRANCH   7  13
BRANCH   1  25
ATOM     25  C6  <0> d   1      -2.590   2.501   0.151  0.00  0.00    -0.020 A 
ATOM     26  C1  <0> d   1      -3.539   2.062  -0.771  0.00  0.00     0.014 A 
ATOM     27  C2  <0> d   1      -4.828   2.553  -0.718  0.00  0.00     0.024 A 
ATOM     28  C3  <0> d   1      -5.176   3.488   0.242  0.00  0.00     0.034 A 
ATOM     29  C4  <0> d   1      -4.236   3.931   1.157  0.00  0.00     0.024 A 
ATOM     30 Cl1  <0> d   1      -6.797   4.107   0.299  0.00  0.00    -0.084 Cl
ATOM     31  C5  <0> d   1      -2.946   3.443   1.116  0.00  0.00     0.014 A 
ENDBRANCH   1  25
TORSDOF 6
