REMARK  7 active torsions:
REMARK  status: ('A' for Active; 'I' for Inactive)
REMARK    1  A    between atoms: C2_2  and  C5_5 
REMARK    2  A    between atoms: C8_8  and  C11_11 
REMARK    3  A    between atoms: C18_19  and  C20_22 
REMARK    4  A    between atoms: C20_22  and  N1_23 
REMARK    5  A    between atoms: N2_26  and  C25_29 
REMARK    6  A    between atoms: C25_29  and  C26_30 
REMARK    7  A    between atoms: C26_30  and  O3_31 
ROOT
ATOM      1  C11 <0> d   1       2.692  -1.858  -4.726  0.00  0.00     0.053 C 
ATOM      2  C12 <0> d   1       3.951  -1.435  -5.000  0.00  0.00     0.127 A 
ATOM      3  C13 <0> d   1       4.723  -1.732  -6.218  0.00  0.00     0.218 A 
ATOM      4  O1  <0> d   1       4.377  -2.399  -7.177  0.00  0.00    -0.284 OA
ATOM      5  C14 <0> d   1       6.011  -1.042  -6.016  0.00  0.00     0.051 A 
ATOM      6  C15 <0> d   1       7.166  -0.932  -6.791  0.00  0.00     0.021 A 
ATOM      7  C16 <0> d   1       8.228  -0.207  -6.330  0.00  0.00     0.041 A 
ATOM      8  C17 <0> d   1       8.160   0.422  -5.090  0.00  0.00     0.118 A 
ATOM      9  C18 <0> d   1       7.019   0.321  -4.310  0.00  0.00     0.039 A 
ATOM     10  C19 <0> d   1       5.930  -0.413  -4.763  0.00  0.00     0.101 A 
ATOM     11  O2  <0> d   1       4.724  -0.656  -4.207  0.00  0.00    -0.305 OA
ATOM     12  O4  <0> d   1       9.221   1.140  -4.641  0.00  0.00    -0.191 OA
ENDROOT
BRANCH   9  13
ATOM     13  C20 <0> d   1       6.960   1.007  -2.969  0.00  0.00     0.279 C 
BRANCH  13  14
ATOM     14  N1  <0> d   1       6.428   2.365  -3.137  0.00  0.00    -0.064 N 
ATOM     15  C24 <0> d   1       6.258   2.991  -1.819  0.00  0.00     0.265 C 
ATOM     16  C23 <0> d   1       5.685   4.399  -1.992  0.00  0.00     0.300 C 
ATOM     17  N2  <0> d   1       6.601   5.199  -2.819  0.00  0.00     0.093 N 
ATOM     18  C22 <0> d   1       6.800   4.572  -4.133  0.00  0.00     0.300 C 
ATOM     19  C21 <0> d   1       7.364   3.162  -3.942  0.00  0.00     0.265 C 
ATOM     20  H32 <0> d   1       5.535   2.321  -3.606  0.00  0.00     0.280 HD
BRANCH  17  21
ATOM     21  C25 <0> d   1       6.113   6.577  -2.962  0.00  0.00     0.298 C 
BRANCH  21  22
ATOM     22  C26 <0> d   1       6.155   7.276  -1.601  0.00  0.00     0.194 C 
BRANCH  22  23
ATOM     23  O3  <0> d   1       7.512   7.398  -1.169  0.00  0.00    -0.399 OA
ATOM     24  H31 <0> d   1       7.614   7.833  -0.312  0.00  0.00     0.209 HD
ENDBRANCH  22  23
ENDBRANCH  21  22
ENDBRANCH  17  21
ENDBRANCH  13  14
ENDBRANCH   9  13
BRANCH   1  25
ATOM     25  C8  <0> d   1       2.002  -1.380  -3.520  0.00  0.00    -0.033 A 
ATOM     26  C7  <0> d   1       2.683  -0.591  -2.586  0.00  0.00     0.012 A 
ATOM     27  C6  <0> d   1       2.029  -0.146  -1.457  0.00  0.00     0.009 A 
ATOM     28  C5  <0> d   1       0.702  -0.478  -1.246  0.00  0.00    -0.051 A 
ATOM     29  C10 <0> d   1       0.023  -1.263  -2.162  0.00  0.00     0.009 A 
ATOM     30  C9  <0> d   1       0.661  -1.711  -3.299  0.00  0.00     0.012 A 
BRANCH  28  31
ATOM     31  C2  <0> d   1      -0.005   0.012  -0.009  0.00  0.00    -0.024 C 
ATOM     32  C1  <0> d   1      -0.487  -1.186   0.812  0.00  0.00     0.019 C 
ATOM     33  C3  <0> d   1      -1.207   0.869  -0.414  0.00  0.00     0.019 C 
ATOM     34  C4  <0> d   1       0.959   0.852   0.831  0.00  0.00     0.019 C 
ENDBRANCH  28  31
ENDBRANCH   1  25
TORSDOF 7
