REMARK  7 active torsions:
REMARK  status: ('A' for Active; 'I' for Inactive)
REMARK    1  A    between atoms: C4_4  and  O6_33 
REMARK    2  A    between atoms: C5_5  and  C20_25 
REMARK    3  A    between atoms: C10_11  and  C11_12 
REMARK    4  A    between atoms: C14_15  and  O4_22 
REMARK    5  A    between atoms: C15_16  and  O3_20 
REMARK    6  A    between atoms: C16_17  and  O2_18 
REMARK    7  A    between atoms: C20_25  and  N1_26 
ROOT
ATOM      1  C1  <0> d   1       2.554   7.792   2.304  0.00  0.00     0.049 C 
ATOM      2  C2  <0> d   1       2.532   6.306   2.050  0.00  0.00    -0.042 A 
ATOM      3  C3  <0> d   1       2.282   5.831   0.793  0.00  0.00     0.045 A 
ATOM      4  C4  <0> d   1       2.268   4.460   0.554  0.00  0.00     0.077 A 
ATOM      5  C5  <0> d   1       2.495   3.562   1.585  0.00  0.00     0.038 A 
ATOM      6  C6  <0> d   1       2.752   4.029   2.869  0.00  0.00     0.102 A 
ATOM      7  C7  <0> d   1       2.769   5.415   3.096  0.00  0.00     0.057 A 
ATOM      8  C8  <0> d   1       3.063   5.596   4.529  0.00  0.00     0.219 A 
ATOM      9  O1  <0> d   1       3.167   6.645   5.142  0.00  0.00    -0.284 OA
ATOM     10  C9  <0> d   1       3.202   4.232   5.053  0.00  0.00     0.128 A 
ATOM     11  C10 <0> d   1       3.476   3.890   6.340  0.00  0.00     0.055 C 
ATOM     12  O5  <0> d   1       3.006   3.376   4.023  0.00  0.00    -0.305 OA
ENDROOT
BRANCH  11  13
ATOM     13  C11 <0> d   1       3.433   2.484   6.750  0.00  0.00     0.003 A 
ATOM     14  C16 <0> d   1       3.364   2.148   8.113  0.00  0.00     0.114 A 
ATOM     15  C15 <0> d   1       3.318   0.814   8.490  0.00  0.00     0.136 A 
ATOM     16  C14 <0> d   1       3.353  -0.184   7.522  0.00  0.00     0.104 A 
ATOM     17  C13 <0> d   1       3.427   0.149   6.173  0.00  0.00     0.040 A 
ATOM     18  C12 <0> d   1       3.468   1.468   5.785  0.00  0.00     0.017 A 
BRANCH  14  19
ATOM     19  O2  <0> d   1       3.336   3.125   9.056  0.00  0.00    -0.352 OA
ATOM     20  C17 <0> d   1       2.051   3.613   9.447  0.00  0.00     0.210 C 
ENDBRANCH  14  19
BRANCH  15  21
ATOM     21  O3  <0> d   1       3.246   0.481   9.808  0.00  0.00    -0.351 OA
ATOM     22  C18 <0> d   1       4.483   0.304  10.501  0.00  0.00     0.210 C 
ENDBRANCH  15  21
BRANCH  16  23
ATOM     23  O4  <0> d   1       3.314  -1.489   7.894  0.00  0.00    -0.353 OA
ATOM     24  C19 <0> d   1       3.352  -2.464   6.850  0.00  0.00     0.210 C 
ENDBRANCH  16  23
ENDBRANCH  11  13
BRANCH   5  25
ATOM     25  C20 <0> d   1       2.471   2.080   1.313  0.00  0.00     0.317 C 
BRANCH  25  26
ATOM     26  N1  <0> d   1       1.108   1.569   1.506  0.00  0.00     0.096 N 
ATOM     27  C24 <0> d   1       1.088   0.100   1.483  0.00  0.00     0.300 C 
ATOM     28  C23 <0> d   1      -0.333  -0.394   1.766  0.00  0.00     0.264 C 
ATOM     29  N2  <0> d   1      -1.250   0.158   0.759  0.00  0.00    -0.072 N 
ATOM     30  C22 <0> d   1      -1.230   1.628   0.782  0.00  0.00     0.264 C 
ATOM     31  C25 <0> d   1      -2.613  -0.353   0.952  0.00  0.00     0.269 C 
ATOM     32  H30 <0> d   1      -0.904  -0.171  -0.232  0.00  0.00     0.279 HD
ATOM     33  C21 <0> d   1       0.191   2.121   0.499  0.00  0.00     0.300 C 
ENDBRANCH  25  26
ENDBRANCH   5  25
BRANCH   4  34
ATOM     34  O6  <0> d   1       2.023   3.997  -0.698  0.00  0.00    -0.360 OA
ATOM     35  H31 <0> d   1       2.011   2.915  -0.892  0.00  0.00     0.217 HD
ENDBRANCH   4  34
TORSDOF 7
