REMARK  9 active torsions:
REMARK  status: ('A' for Active; 'I' for Inactive)
REMARK    1  A    between atoms: C2_2  and  C3_3 
REMARK    2  A    between atoms: C3_3  and  O1_4 
REMARK    3  A    between atoms: O1_4  and  C4_5 
REMARK    4  A    between atoms: C4_5  and  C5_7 
REMARK    5  A    between atoms: C8_10  and  O3_13 
REMARK    6  A    between atoms: O3_13  and  C11_14 
REMARK    7  A    between atoms: C18_23  and  O6_33 
REMARK    8  A    between atoms: C19_24  and  C20_25 
REMARK    9  A    between atoms: C20_25  and  N1_26 
ROOT
ATOM      1  C11 <0> d   1      -1.175   3.408   0.026  0.00  0.00     0.156 A 
ATOM      2  C12 <0> d   1      -1.167   4.092  -1.135  0.00  0.00     0.087 A 
ATOM      3  O4  <0> d   1      -1.141   5.431  -1.187  0.00  0.00    -0.311 OA
ATOM      4  C13 <0> d   1      -1.121   6.196  -0.077  0.00  0.00     0.100 A 
ATOM      5  C14 <0> d   1      -1.127   5.589   1.191  0.00  0.00     0.052 A 
ATOM      6  C15 <0> d   1      -1.161   4.118   1.260  0.00  0.00     0.221 A 
ATOM      7  O5  <0> d   1      -1.172   3.532   2.330  0.00  0.00    -0.284 OA
ATOM      8  C16 <0> d   1      -1.107   6.371   2.346  0.00  0.00     0.021 A 
ATOM      9  C17 <0> d   1      -1.081   7.733   2.242  0.00  0.00     0.038 A 
ATOM     10  C18 <0> d   1      -1.075   8.343   0.990  0.00  0.00     0.076 A 
ATOM     11  C19 <0> d   1      -1.095   7.581  -0.166  0.00  0.00     0.035 A 
ATOM     12  C26 <0> d   1      -1.187   3.320  -2.429  0.00  0.00     0.080 C 
ENDROOT
BRANCH   1  13
ATOM     13  O3  <0> d   1      -1.202   2.047   0.019  0.00  0.00    -0.304 OA
BRANCH  13  14
ATOM     14  C8  <0> d   1      -0.017   1.386   0.010  0.00  0.00     0.076 A 
ATOM     15  C7  <0> d   1       0.002  -0.004   0.002  0.00  0.00     0.038 A 
ATOM     16  C6  <0> d   1       1.202  -0.678  -0.013  0.00  0.00     0.020 A 
ATOM     17  C5  <0> d   1       2.404   0.037  -0.021  0.00  0.00     0.039 A 
ATOM     18  C10 <0> d   1       2.380   1.435  -0.013  0.00  0.00     0.020 A 
ATOM     19  C9  <0> d   1       1.176   2.102   0.002  0.00  0.00     0.038 A 
BRANCH  17  20
ATOM     20  C4  <0> d   1       3.691  -0.680  -0.036  0.00  0.00     0.293 C 
ATOM     21  O2  <0> d   1       3.710  -1.895  -0.043  0.00  0.00    -0.259 OA
BRANCH  20  22
ATOM     22  O1  <0> d   1       4.848   0.011  -0.044  0.00  0.00    -0.318 OA
BRANCH  22  23
ATOM     23  C3  <0> d   1       6.077  -0.761  -0.059  0.00  0.00     0.178 C 
BRANCH  23  24
ATOM     24  C2  <0> d   1       7.277   0.189  -0.066  0.00  0.00     0.022 C 
ATOM     25  C1  <0> d   1       8.572  -0.625  -0.082  0.00  0.00     0.007 C 
ENDBRANCH  23  24
ENDBRANCH  22  23
ENDBRANCH  20  22
ENDBRANCH  17  20
ENDBRANCH  13  14
ENDBRANCH   1  13
BRANCH  11  26
ATOM     26  C20 <0> d   1      -1.089   8.252  -1.515  0.00  0.00     0.279 C 
BRANCH  26  27
ATOM     27  N1  <0> d   1      -2.472   8.497  -1.947  0.00  0.00    -0.064 N 
ATOM     28  C24 <0> d   1      -2.507   9.357  -3.138  0.00  0.00     0.265 C 
ATOM     29  C23 <0> d   1      -3.963   9.652  -3.508  0.00  0.00     0.299 C 
ATOM     30  N2  <0> d   1      -4.669   8.387  -3.753  0.00  0.00     0.087 N 
ATOM     31  C22 <0> d   1      -4.634   7.527  -2.562  0.00  0.00     0.299 C 
ATOM     32  C25 <0> d   1      -6.052   8.632  -4.185  0.00  0.00     0.310 C 
ATOM     33  C21 <0> d   1      -3.178   7.232  -2.193  0.00  0.00     0.265 C 
ATOM     34  H31 <0> d   1      -2.991   9.023  -1.132  0.00  0.00     0.280 HD
ENDBRANCH  26  27
ENDBRANCH  11  26
BRANCH  10  35
ATOM     35  O6  <0> d   1      -1.050   9.698   0.902  0.00  0.00    -0.360 OA
ATOM     36  H27 <0> d   1      -1.046  10.185  -0.084  0.00  0.00     0.217 HD
ENDBRANCH  10  35
TORSDOF 9
