REMARK  6 active torsions:
REMARK  status: ('A' for Active; 'I' for Inactive)
REMARK    1  A    between atoms: N1_4  and  C7_9 
REMARK    2  A    between atoms: C7_9  and  C8_10 
REMARK    3  A    between atoms: C8_10  and  O2_11 
REMARK    4  A    between atoms: O2_11  and  C9_12 
REMARK    5  A    between atoms: C12_15  and  C15_19 
REMARK    6  A    between atoms: C16_20  and  C18_25 
ROOT
ATOM      1  C9  <0> d   1       6.311   0.396  -1.502  0.00  0.00     0.071 A 
ATOM      2  C10 <0> d   1       6.541   1.518  -2.288  0.00  0.00     0.038 A 
ATOM      3  C11 <0> d   1       7.766   2.150  -2.253  0.00  0.00     0.019 A 
ATOM      4  C12 <0> d   1       8.777   1.665  -1.426  0.00  0.00     0.032 A 
ATOM      5  C13 <0> d   1       8.544   0.535  -0.634  0.00  0.00     0.122 A 
ATOM      6  C14 <0> d   1       7.310  -0.090  -0.672  0.00  0.00     0.077 A 
ATOM      7  O3  <0> d   1       9.526   0.057   0.174  0.00  0.00    -0.191 OA
ENDROOT
BRANCH   4   8
ATOM      8  C15 <0> d   1      10.094   2.342  -1.386  0.00  0.00     0.102 A 
ATOM      9  C16 <0> d   1      10.870   2.728  -2.509  0.00  0.00     0.022 A 
ATOM     10  C17 <0> d   1      12.005   3.318  -2.039  0.00  0.00     0.124 A 
ATOM     11  N2  <0> d   1      11.950   3.306  -0.692  0.00  0.00    -0.288 N 
ATOM     12  H3  <0> d   1      12.626   3.661  -0.094  0.00  0.00     0.188 HD
ATOM     13  N3  <0> d   1      10.750   2.699  -0.303  0.00  0.00    -0.174 NA
BRANCH   9  14
ATOM     14  C18 <0> d   1      10.511   2.526  -3.934  0.00  0.00    -0.022 A 
ATOM     15  C23 <0> d   1      10.502   3.607  -4.813  0.00  0.00     0.012 A 
ATOM     16  C22 <0> d   1      10.174   3.412  -6.140  0.00  0.00     0.001 A 
ATOM     17  C21 <0> d   1       9.841   2.148  -6.594  0.00  0.00     0.000 A 
ATOM     18  C20 <0> d   1       9.843   1.073  -5.724  0.00  0.00     0.001 A 
ATOM     19  C19 <0> d   1      10.175   1.255  -4.397  0.00  0.00     0.012 A 
ENDBRANCH   9  14
ENDBRANCH   4   8
BRANCH   1  20
ATOM     20  O2  <0> d   1       5.102  -0.223  -1.542  0.00  0.00    -0.349 OA
BRANCH  20  21
ATOM     21  C8  <0> d   1       4.119   0.330  -2.418  0.00  0.00     0.206 C 
BRANCH  21  22
ATOM     22  C7  <0> d   1       2.833  -0.495  -2.328  0.00  0.00     0.299 C 
BRANCH  22  23
ATOM     23  N1  <0> d   1       2.278  -0.390  -0.972  0.00  0.00     0.095 N 
ATOM     24  C3  <0> d   1       1.621   0.910  -0.771  0.00  0.00     0.303 C 
ATOM     25  C2  <0> d   1       1.111   1.000   0.670  0.00  0.00     0.146 C 
ATOM     26  C1  <0> d   1       2.296   0.944   1.636  0.00  0.00     0.041 C 
ATOM     27  O1  <0> d   1       0.231  -0.097   0.930  0.00  0.00    -0.378 OA
ATOM     28  C5  <0> d   1       0.839  -1.378   0.744  0.00  0.00     0.146 C 
ATOM     29  C4  <0> d   1       1.347  -1.493  -0.697  0.00  0.00     0.303 C 
ATOM     30  C6  <0> d   1      -0.191  -2.477   1.011  0.00  0.00     0.041 C 
ENDBRANCH  22  23
ENDBRANCH  21  22
ENDBRANCH  20  21
ENDBRANCH   1  20
TORSDOF 6
