REMARK  5 active torsions:
REMARK  status: ('A' for Active; 'I' for Inactive)
REMARK    1  A    between atoms: C2_2  and  C3_3 
REMARK    2  A    between atoms: C7_8  and  C18_23 
REMARK    3  A    between atoms: C10_12  and  C12_15 
REMARK    4  A    between atoms: C11_13  and  O3_14 
REMARK    5  A    between atoms: C12_15  and  N1_16 
ROOT
ATOM      1  C3  <0> d   1      -1.871  -1.680  -1.041  0.00  0.00    -0.024 A 
ATOM      2  C4  <0> d   1      -2.267  -1.861   0.254  0.00  0.00     0.028 A 
ATOM      3  C5  <0> d   1      -3.615  -2.071   0.540  0.00  0.00     0.050 A 
ATOM      4  C6  <0> d   1      -4.084  -2.285   1.923  0.00  0.00     0.200 C 
ATOM      5  O1  <0> d   1      -3.373  -2.067   2.888  0.00  0.00    -0.286 OA
ATOM      6  C7  <0> d   1      -5.469  -2.780   2.066  0.00  0.00     0.083 C 
ATOM      7  C8  <0> d   1      -6.278  -2.748   0.970  0.00  0.00     0.162 C 
ATOM      8  O2  <0> d   1      -5.875  -2.278  -0.210  0.00  0.00    -0.320 OA
ATOM      9  C9  <0> d   1      -4.571  -2.091  -0.492  0.00  0.00     0.100 A 
ATOM     10  C10 <0> d   1      -4.150  -1.909  -1.802  0.00  0.00     0.038 A 
ATOM     11  C11 <0> d   1      -2.808  -1.699  -2.072  0.00  0.00     0.082 A 
ENDROOT
BRANCH   6  12
ATOM     12  C18 <0> d   1      -5.961  -3.294   3.359  0.00  0.00     0.146 A 
ATOM     13  N4  <0> d   1      -7.075  -2.840   4.015  0.00  0.00    -0.333 N 
ATOM     14  C24 <0> d   1      -7.192  -3.576   5.179  0.00  0.00     0.064 A 
ATOM     15  C25 <0> d   1      -7.975  -1.776   3.565  0.00  0.00     0.158 C 
ATOM     16  C19 <0> d   1      -6.107  -4.471   5.189  0.00  0.00     0.086 A 
ATOM     17  C23 <0> d   1      -8.099  -3.580   6.229  0.00  0.00     0.032 A 
ATOM     18  N3  <0> d   1      -5.395  -4.250   4.056  0.00  0.00    -0.228 NA
ATOM     19  C20 <0> d   1      -5.955  -5.355   6.262  0.00  0.00     0.034 A 
ATOM     20  C21 <0> d   1      -6.858  -5.343   7.287  0.00  0.00     0.002 A 
ATOM     21  C22 <0> d   1      -7.928  -4.461   7.277  0.00  0.00     0.002 A 
ENDBRANCH   6  12
BRANCH   1  22
ATOM     22  C2  <0> d   1      -0.414  -1.452  -1.355  0.00  0.00     0.037 C 
ATOM     23  C1  <0> d   1      -0.139   0.050  -1.438  0.00  0.00     0.010 C 
ENDBRANCH   1  22
BRANCH  10  24
ATOM     24  C12 <0> d   1      -5.152  -1.933  -2.928  0.00  0.00     0.317 C 
BRANCH  24  25
ATOM     25  N1  <0> d   1      -5.658  -0.575  -3.162  0.00  0.00     0.096 N 
ATOM     26  C16 <0> d   1      -6.452  -0.514  -4.397  0.00  0.00     0.303 C 
ATOM     27  C15 <0> d   1      -6.894   0.930  -4.646  0.00  0.00     0.302 C 
ATOM     28  N2  <0> d   1      -7.676   1.406  -3.497  0.00  0.00     0.087 N 
ATOM     29  C14 <0> d   1      -6.882   1.346  -2.262  0.00  0.00     0.302 C 
ATOM     30  C17 <0> d   1      -8.182   2.765  -3.731  0.00  0.00     0.310 C 
ATOM     31  C13 <0> d   1      -6.440  -0.099  -2.013  0.00  0.00     0.303 C 
ENDBRANCH  24  25
ENDBRANCH  10  24
BRANCH  11  32
ATOM     32  O3  <0> d   1      -2.400  -1.516  -3.354  0.00  0.00    -0.359 OA
ATOM     33  H8  <0> d   1      -2.167  -2.335  -3.813  0.00  0.00     0.217 HD
ENDBRANCH  11  32
TORSDOF 5
