REMARK  6 active torsions:
REMARK  status: ('A' for Active; 'I' for Inactive)
REMARK    1  A    between atoms: C6_6  and  C7_7 
REMARK    2  A    between atoms: C14_15  and  C16_18 
REMARK    3  A    between atoms: C16_18  and  N1_19 
REMARK    4  A    between atoms: N2_22  and  C21_25 
REMARK    5  A    between atoms: C21_25  and  C22_26 
REMARK    6  A    between atoms: C22_26  and  O3_27 
ROOT
ATOM      1  C7  <0> d   1       4.203   2.004   0.769  0.00  0.00     0.053 C 
ATOM      2  C8  <0> d   1       4.144   3.343   0.557  0.00  0.00     0.127 A 
ATOM      3  C9  <0> d   1       5.291   4.259   0.462  0.00  0.00     0.218 A 
ATOM      4  O1  <0> d   1       6.475   3.985   0.556  0.00  0.00    -0.284 OA
ATOM      5  C10 <0> d   1       4.688   5.583   0.225  0.00  0.00     0.051 A 
ATOM      6  C11 <0> d   1       5.225   6.859   0.046  0.00  0.00     0.021 A 
ATOM      7  C12 <0> d   1       4.395   7.925  -0.153  0.00  0.00     0.041 A 
ATOM      8  C13 <0> d   1       3.014   7.742  -0.176  0.00  0.00     0.118 A 
ATOM      9  C14 <0> d   1       2.467   6.482   0.002  0.00  0.00     0.041 A 
ATOM     10  C15 <0> d   1       3.298   5.386   0.204  0.00  0.00     0.101 A 
ATOM     11  O2  <0> d   1       3.019   4.079   0.399  0.00  0.00    -0.305 OA
ATOM     12  O4  <0> d   1       2.198   8.808  -0.374  0.00  0.00    -0.191 OA
ENDROOT
BRANCH   9  13
ATOM     13  C16 <0> d   1       0.972   6.299  -0.025  0.00  0.00     0.317 C 
BRANCH  13  14
ATOM     14  N1  <0> d   1       0.435   6.455   1.334  0.00  0.00     0.096 N 
ATOM     15  C20 <0> d   1      -1.033   6.520   1.316  0.00  0.00     0.303 C 
ATOM     16  C19 <0> d   1      -1.547   6.761   2.737  0.00  0.00     0.302 C 
ATOM     17  N2  <0> d   1      -1.081   5.678   3.614  0.00  0.00     0.093 N 
ATOM     18  C18 <0> d   1       0.387   5.613   3.632  0.00  0.00     0.302 C 
ATOM     19  C17 <0> d   1       0.901   5.372   2.211  0.00  0.00     0.303 C 
BRANCH  17  20
ATOM     20  C21 <0> d   1      -1.618   5.834   4.973  0.00  0.00     0.298 C 
BRANCH  20  21
ATOM     21  C22 <0> d   1      -0.945   7.027   5.653  0.00  0.00     0.194 C 
BRANCH  21  22
ATOM     22  O3  <0> d   1      -1.333   8.233   4.992  0.00  0.00    -0.399 OA
ATOM     23  H21 <0> d   1      -0.947   9.202   5.343  0.00  0.00     0.209 HD
ENDBRANCH  21  22
ENDBRANCH  20  21
ENDBRANCH  17  20
ENDBRANCH  13  14
ENDBRANCH   9  13
BRANCH   1  24
ATOM     24  C6  <0> d   1       2.975   1.198   0.722  0.00  0.00    -0.032 A 
ATOM     25  C1  <0> d   1       3.047  -0.198   0.796  0.00  0.00     0.013 A 
ATOM     26  C2  <0> d   1       1.891  -0.947   0.751  0.00  0.00     0.026 A 
ATOM     27  C3  <0> d   1       0.660  -0.323   0.633  0.00  0.00     0.055 A 
ATOM     28  C4  <0> d   1       0.580   1.060   0.559  0.00  0.00     0.056 A 
ATOM     29 Cl2  <0> d   1      -0.790  -1.276   0.578  0.00  0.00    -0.083 Cl
ATOM     30  C5  <0> d   1       1.728   1.823   0.603  0.00  0.00     0.037 A 
ATOM     31 Cl1  <0> d   1      -0.968   1.831   0.410  0.00  0.00    -0.083 Cl
ENDBRANCH   1  24
TORSDOF 6
