REMARK  9 active torsions:
REMARK  status: ('A' for Active; 'I' for Inactive)
REMARK    1  A    between atoms: C2_2  and  N1_3 
REMARK    2  A    between atoms: N2_6  and  C7_9 
REMARK    3  A    between atoms: C7_9  and  C8_10 
REMARK    4  A    between atoms: C9_11  and  O4_28 
REMARK    5  A    between atoms: C12_14  and  C14_17 
REMARK    6  A    between atoms: C13_15  and  O1_16 
REMARK    7  A    between atoms: C14_17  and  C15_19 
REMARK    8  A    between atoms: C15_19  and  C16_20 
REMARK    9  A    between atoms: C21_25  and  O3_26 
ROOT
ATOM      1  C8  <0> d   1      -4.908  -4.112  -0.919  0.00  0.00     0.037 A 
ATOM      2  C9  <0> d   1      -4.904  -4.800  -2.124  0.00  0.00     0.076 A 
ATOM      3  C10 <0> d   1      -4.885  -6.192  -2.139  0.00  0.00     0.038 A 
ATOM      4  C11 <0> d   1      -4.870  -6.895  -0.969  0.00  0.00     0.021 A 
ATOM      5  C12 <0> d   1      -4.874  -6.217   0.257  0.00  0.00     0.044 A 
ATOM      6  C13 <0> d   1      -4.887  -4.811   0.276  0.00  0.00     0.090 A 
ENDROOT
BRANCH   5   7
ATOM      7  C14 <0> d   1      -4.859  -6.970   1.514  0.00  0.00     0.166 C 
ATOM      8  O2  <0> d   1      -4.862  -6.380   2.574  0.00  0.00    -0.292 OA
BRANCH   7   9
ATOM      9  C15 <0> d   1      -4.839  -8.476   1.490  0.00  0.00     0.125 C 
BRANCH   9  10
ATOM     10  C16 <0> d   1      -4.826  -9.001   2.902  0.00  0.00    -0.018 A 
ATOM     11  C21 <0> d   1      -6.018  -9.161   3.595  0.00  0.00     0.074 A 
ATOM     12  C20 <0> d   1      -6.003  -9.650   4.893  0.00  0.00     0.037 A 
ATOM     13  C19 <0> d   1      -4.802  -9.966   5.497  0.00  0.00     0.003 A 
ATOM     14  C18 <0> d   1      -3.615  -9.801   4.807  0.00  0.00     0.001 A 
ATOM     15  C17 <0> d   1      -3.627  -9.319   3.511  0.00  0.00     0.010 A 
BRANCH  11  16
ATOM     16  O3  <0> d   1      -7.198  -8.844   3.000  0.00  0.00    -0.355 OA
ATOM     17  C22 <0> d   1      -8.385  -9.033   3.772  0.00  0.00     0.210 C 
ENDBRANCH  11  16
ENDBRANCH   9  10
ENDBRANCH   7   9
ENDBRANCH   5   7
BRANCH   6  18
ATOM     18  O1  <0> d   1      -4.885  -4.144   1.456  0.00  0.00    -0.359 OA
ATOM     19  H18 <0> d   1      -5.768  -3.962   1.807  0.00  0.00     0.217 HD
ENDBRANCH   6  18
BRANCH   1  20
ATOM     20  C7  <0> d   1      -4.928  -2.605  -0.910  0.00  0.00     0.317 C 
BRANCH  20  21
ATOM     21  N2  <0> d   1      -3.550  -2.096  -0.921  0.00  0.00     0.096 N 
ATOM     22  C4  <0> d   1      -3.526  -0.645  -1.151  0.00  0.00     0.303 C 
ATOM     23  C3  <0> d   1      -2.074  -0.169  -1.234  0.00  0.00     0.302 C 
ATOM     24  N1  <0> d   1      -1.376  -0.512   0.012  0.00  0.00     0.091 N 
ATOM     25  C6  <0> d   1      -1.400  -1.964   0.243  0.00  0.00     0.302 C 
ATOM     26  C5  <0> d   1      -2.852  -2.440   0.326  0.00  0.00     0.303 C 
BRANCH  24  27
ATOM     27  C2  <0> d   1       0.002  -0.004   0.002  0.00  0.00     0.268 C 
ATOM     28  C1  <0> d   1      -0.019   1.526   0.010  0.00  0.00     0.037 C 
ENDBRANCH  24  27
ENDBRANCH  20  21
ENDBRANCH   1  20
BRANCH   2  29
ATOM     29  O4  <0> d   1      -4.920  -4.112  -3.293  0.00  0.00    -0.360 OA
ATOM     30  H28 <0> d   1      -4.041  -3.900  -3.637  0.00  0.00     0.217 HD
ENDBRANCH   2  29
TORSDOF 9
