REMARK  5 active torsions:
REMARK  status: ('A' for Active; 'I' for Inactive)
REMARK    1  A    between atoms: C7_7  and  C10_12 
REMARK    2  A    between atoms: C10_12  and  N1_13 
REMARK    3  A    between atoms: N2_16  and  C15_19 
REMARK    4  A    between atoms: C15_19  and  C16_20 
REMARK    5  A    between atoms: C16_20  and  O3_21 
ROOT
ATOM      1  C1  <0> d   1      -0.017   1.393   0.010  0.00  0.00     0.022 A 
ATOM      2  C2  <0> d   1       1.170   2.096   0.002  0.00  0.00    -0.051 A 
ATOM      3  C3  <0> d   1       2.382   1.421  -0.013  0.00  0.00    -0.049 A 
ATOM      4  C4  <0> d   1       2.413   0.038  -0.019  0.00  0.00     0.046 A 
ATOM      5  C5  <0> d   1       1.231  -0.688  -0.011  0.00  0.00     0.090 A 
ATOM      6  C6  <0> d   1       0.002  -0.004   0.002  0.00  0.00     0.007 A 
ATOM      7  C7  <0> d   1      -1.243  -0.779   0.007  0.00  0.00    -0.011 A 
ATOM      8  C8  <0> d   1      -1.155  -2.133  -0.001  0.00  0.00     0.092 A 
ATOM      9  C9  <0> d   1       0.113  -2.753  -0.014  0.00  0.00     0.288 A 
ATOM     10  O1  <0> d   1       0.178  -3.969  -0.022  0.00  0.00    -0.260 OA
ATOM     11  O2  <0> d   1       1.248  -2.038  -0.017  0.00  0.00    -0.275 OA
ATOM     12  C17 <0> d   1       3.521   2.420  -0.019  0.00  0.00     0.039 C 
ATOM     13  C18 <0> d   1       2.882   3.758  -0.448  0.00  0.00     0.009 C 
ATOM     14  C19 <0> d   1       1.418   3.590   0.008  0.00  0.00     0.039 C 
ENDROOT
BRANCH   7  15
ATOM     15  C10 <0> d   1      -2.583  -0.090   0.022  0.00  0.00     0.312 C 
BRANCH  15  16
ATOM     16  N1  <0> d   1      -2.952   0.233   1.407  0.00  0.00     0.096 N 
ATOM     17  C14 <0> d   1      -4.131   1.110   1.447  0.00  0.00     0.303 C 
ATOM     18  C13 <0> d   1      -4.434   1.486   2.899  0.00  0.00     0.302 C 
ATOM     19  N2  <0> d   1      -4.664   0.264   3.682  0.00  0.00     0.093 N 
ATOM     20  C12 <0> d   1      -3.486  -0.613   3.642  0.00  0.00     0.302 C 
ATOM     21  C11 <0> d   1      -3.182  -0.990   2.190  0.00  0.00     0.303 C 
BRANCH  19  22
ATOM     22  C15 <0> d   1      -5.033   0.587   5.066  0.00  0.00     0.298 C 
BRANCH  22  23
ATOM     23  C16 <0> d   1      -6.394   1.286   5.082  0.00  0.00     0.194 C 
BRANCH  23  24
ATOM     24  O3  <0> d   1      -7.400   0.380   4.624  0.00  0.00    -0.399 OA
ATOM     25  H18 <0> d   1      -8.290   0.757   4.607  0.00  0.00     0.209 HD
ENDBRANCH  23  24
ENDBRANCH  22  23
ENDBRANCH  19  22
ENDBRANCH  15  16
ENDBRANCH   7  15
TORSDOF 5
