REMARK  3 active torsions:
REMARK  status: ('A' for Active; 'I' for Inactive)
REMARK    1  A    between atoms: C9_10  and  C10_11 
REMARK    2  A    between atoms: N1_20  and  C19_23 
REMARK    3  A    between atoms: C19_23  and  C20_24 
ROOT
ATOM      1  C1  <0> d   1       0.717   6.730  -6.145  0.00  0.00     0.054 C 
ATOM      2  C2  <0> d   1       0.028   7.524  -5.066  0.00  0.00     0.007 A 
ATOM      3  C3  <0> d   1       0.028   7.058  -3.758  0.00  0.00     0.087 A 
ATOM      4  C4  <0> d   1      -0.604   7.782  -2.753  0.00  0.00     0.005 A 
ATOM      5  C5  <0> d   1      -1.233   8.961  -3.049  0.00  0.00     0.030 A 
ATOM      6  C6  <0> d   1      -1.240   9.440  -4.358  0.00  0.00     0.052 A 
ATOM      7  C7  <0> d   1      -0.604   8.718  -5.382  0.00  0.00     0.099 A 
ATOM      8  O1  <0> d   1      -0.742   9.374  -6.555  0.00  0.00    -0.305 OA
ATOM      9  C8  <0> d   1      -1.444  10.522  -6.411  0.00  0.00     0.127 A 
ATOM     10  C9  <0> d   1      -1.752  11.402  -7.396  0.00  0.00     0.053 C 
ATOM     11  C16 <0> d   1      -1.812  10.643  -4.991  0.00  0.00     0.218 A 
ATOM     12  O2  <0> d   1      -2.446  11.536  -4.458  0.00  0.00    -0.284 OA
ATOM     13  C17 <0> d   1      -0.608   7.285  -1.329  0.00  0.00     0.317 C 
ATOM     14  N1  <0> d   1      -0.263   5.857  -1.306  0.00  0.00     0.121 N 
ATOM     15  C18 <0> d   1       0.949   5.614  -2.106  0.00  0.00     0.448 C 
ATOM     16  O3  <0> d   1       0.650   5.883  -3.478  0.00  0.00    -0.320 OA
ENDROOT
BRANCH  10  17
ATOM     17  C10 <0> d   1      -1.218  11.205  -8.751  0.00  0.00    -0.034 A 
ATOM     18  C15 <0> d   1      -0.497  10.046  -9.061  0.00  0.00     0.011 A 
ATOM     19  C14 <0> d   1       0.001   9.869 -10.335  0.00  0.00     0.001 A 
ATOM     20  C13 <0> d   1      -0.211  10.833 -11.305  0.00  0.00     0.000 A 
ATOM     21  C12 <0> d   1      -0.923  11.982 -11.006  0.00  0.00     0.001 A 
ATOM     22  C11 <0> d   1      -1.432  12.172  -9.739  0.00  0.00     0.011 A 
ENDBRANCH  10  17
BRANCH  14  23
ATOM     23  C19 <0> d   1      -0.088   5.380   0.073  0.00  0.00     0.334 C 
BRANCH  23  24
ATOM     24  C20 <0> d   1       0.020   3.877   0.075  0.00  0.00     0.062 A 
ATOM     25  N2  <0> d   1      -1.076   3.145   0.092  0.00  0.00    -0.264 NA
ATOM     26  C24 <0> d   1      -1.030   1.827   0.089  0.00  0.00     0.117 A 
ATOM     27  C23 <0> d   1       0.181   1.162   0.079  0.00  0.00     0.019 A 
ATOM     28  C22 <0> d   1       1.356   1.898   0.060  0.00  0.00     0.003 A 
ATOM     29  C21 <0> d   1       1.268   3.282   0.058  0.00  0.00     0.029 A 
ENDBRANCH  23  24
ENDBRANCH  14  23
TORSDOF 3
