REMARK  6 active torsions:
REMARK  status: ('A' for Active; 'I' for Inactive)
REMARK    1  A    between atoms: C2_2  and  N1_3 
REMARK    2  A    between atoms: C4_5  and  C12_14 
REMARK    3  A    between atoms: C9_10  and  O1_12 
REMARK    4  A    between atoms: C18_21  and  O4_34 
REMARK    5  A    between atoms: C19_22  and  C21_25 
REMARK    6  A    between atoms: C21_25  and  N2_26 
ROOT
ATOM      1  C12 <0> d   1      -0.016   1.359   0.009  0.00  0.00     0.055 C 
ATOM      2  C13 <0> d   1       0.002  -0.004   0.002  0.00  0.00     0.128 A 
ATOM      3  C14 <0> d   1       1.166  -0.818  -0.013  0.00  0.00     0.218 A 
ATOM      4  O2  <0> d   1       2.328  -0.448  -0.023  0.00  0.00    -0.284 OA
ATOM      5  C15 <0> d   1       0.667  -2.204  -0.016  0.00  0.00     0.051 A 
ATOM      6  C16 <0> d   1       1.293  -3.450  -0.029  0.00  0.00     0.021 A 
ATOM      7  C17 <0> d   1       0.540  -4.590  -0.026  0.00  0.00     0.038 A 
ATOM      8  C18 <0> d   1      -0.850  -4.512  -0.013  0.00  0.00     0.076 A 
ATOM      9  C19 <0> d   1      -1.486  -3.281  -0.001  0.00  0.00     0.036 A 
ATOM     10  C20 <0> d   1      -0.735  -2.114  -0.002  0.00  0.00     0.101 A 
ATOM     11  O3  <0> d   1      -1.086  -0.810   0.014  0.00  0.00    -0.305 OA
ENDROOT
BRANCH   1  12
ATOM     12  C4  <0> d   1      -1.292   2.072   0.019  0.00  0.00    -0.005 A 
ATOM     13  C3  <0> d   1      -2.552   1.513   0.016  0.00  0.00     0.103 A 
ATOM     14  N1  <0> d   1      -3.483   2.497   0.031  0.00  0.00    -0.356 N 
ATOM     15  C6  <0> d   1      -2.877   3.739   0.035  0.00  0.00     0.045 A 
ATOM     16  C5  <0> d   1      -1.488   3.535   0.028  0.00  0.00     0.005 A 
ATOM     17  C7  <0> d   1      -3.376   5.037   0.045  0.00  0.00     0.033 A 
ATOM     18  C10 <0> d   1      -0.620   4.623   0.030  0.00  0.00     0.051 A 
ATOM     19  C9  <0> d   1      -1.134   5.907   0.039  0.00  0.00     0.069 A 
ATOM     20  C8  <0> d   1      -2.511   6.109   0.047  0.00  0.00     0.039 A 
BRANCH  14  21
ATOM     21  C2  <0> d   1      -4.932   2.276   0.036  0.00  0.00     0.124 C 
ATOM     22  C1  <0> d   1      -5.461   2.331  -1.399  0.00  0.00     0.027 C 
ENDBRANCH  14  21
BRANCH  19  23
ATOM     23  O1  <0> d   1      -0.292   6.975   0.041  0.00  0.00    -0.356 OA
ATOM     24  C11 <0> d   1      -0.890   8.273   0.050  0.00  0.00     0.210 C 
ENDBRANCH  19  23
ENDBRANCH   1  12
BRANCH   9  25
ATOM     25  C21 <0> d   1      -2.991  -3.210   0.013  0.00  0.00     0.279 C 
BRANCH  25  26
ATOM     26  N2  <0> d   1      -3.493  -3.180  -1.367  0.00  0.00    -0.066 N 
ATOM     27  C26 <0> d   1      -4.951  -3.349  -1.400  0.00  0.00     0.239 C 
ATOM     28  C25 <0> d   1      -5.420  -3.459  -2.853  0.00  0.00     0.008 C 
ATOM     29  C24 <0> d   1      -5.017  -2.192  -3.611  0.00  0.00     0.011 C 
ATOM     30  C27 <0> d   1      -4.768  -4.678  -3.509  0.00  0.00     0.011 C 
ATOM     31  C23 <0> d   1      -3.499  -2.013  -3.520  0.00  0.00     0.008 C 
ATOM     32  C22 <0> d   1      -3.086  -1.945  -2.048  0.00  0.00     0.239 C 
ATOM     33  C28 <0> d   1      -3.094  -0.717  -4.226  0.00  0.00     0.011 C 
ATOM     34  H32 <0> d   1      -3.045  -4.026  -1.909  0.00  0.00     0.280 HD
ENDBRANCH  25  26
ENDBRANCH   9  25
BRANCH   8  35
ATOM     35  O4  <0> d   1      -1.589  -5.651  -0.011  0.00  0.00    -0.360 OA
ATOM     36  H33 <0> d   1      -2.687  -5.595   0.000  0.00  0.00     0.217 HD
ENDBRANCH   8  35
TORSDOF 6
