REMARK  12 active torsions:
REMARK  status: ('A' for Active; 'I' for Inactive)
REMARK    1  A    between atoms: C2_2  and  N1_3 
REMARK    2  A    between atoms: C4_5  and  C12_14 
REMARK    3  A    between atoms: C9_10  and  O1_12 
REMARK    4  A    between atoms: C18_21  and  O6_35 
REMARK    5  A    between atoms: C19_22  and  C21_25 
REMARK    6  A    between atoms: C21_25  and  N2_26 
REMARK    7  A    between atoms: N2_26  and  C22_27 
REMARK    8  A    between atoms: N2_26  and  C25_31 
REMARK    9  A    between atoms: C22_27  and  C23_28 
REMARK   10  A    between atoms: C23_28  and  O4_29 
REMARK   11  A    between atoms: C25_31  and  C26_32 
REMARK   12  A    between atoms: C26_32  and  O5_33 
ROOT
ATOM      1  C12 <0> d   1      -1.544   4.783   1.051  0.00  0.00     0.055 C 
ATOM      2  C13 <0> d   1      -0.809   3.639   0.955  0.00  0.00     0.128 A 
ATOM      3  C14 <0> d   1       0.600   3.544   1.098  0.00  0.00     0.218 A 
ATOM      4  O2  <0> d   1       1.385   4.450   1.327  0.00  0.00    -0.284 OA
ATOM      5  C15 <0> d   1       0.912   2.116   0.910  0.00  0.00     0.051 A 
ATOM      6  C16 <0> d   1       2.097   1.381   0.927  0.00  0.00     0.021 A 
ATOM      7  C17 <0> d   1       2.064   0.033   0.713  0.00  0.00     0.038 A 
ATOM      8  C18 <0> d   1       0.852  -0.610   0.477  0.00  0.00     0.076 A 
ATOM      9  C19 <0> d   1      -0.333   0.107   0.457  0.00  0.00     0.036 A 
ATOM     10  C20 <0> d   1      -0.317   1.478   0.673  0.00  0.00     0.101 A 
ATOM     11  O3  <0> d   1      -1.300   2.403   0.702  0.00  0.00    -0.305 OA
ENDROOT
BRANCH   1  12
ATOM     12  C4  <0> d   1      -2.994   4.736   0.881  0.00  0.00    -0.005 A 
ATOM     13  C3  <0> d   1      -3.761   3.620   0.622  0.00  0.00     0.103 A 
ATOM     14  N1  <0> d   1      -5.065   3.978   0.532  0.00  0.00    -0.356 N 
ATOM     15  C6  <0> d   1      -5.209   5.338   0.728  0.00  0.00     0.045 A 
ATOM     16  C5  <0> d   1      -3.932   5.873   0.960  0.00  0.00     0.005 A 
ATOM     17  C7  <0> d   1      -6.315   6.182   0.736  0.00  0.00     0.033 A 
ATOM     18  C10 <0> d   1      -3.775   7.238   1.184  0.00  0.00     0.051 A 
ATOM     19  C9  <0> d   1      -4.885   8.062   1.188  0.00  0.00     0.069 A 
ATOM     20  C8  <0> d   1      -6.151   7.531   0.965  0.00  0.00     0.039 A 
BRANCH  14  21
ATOM     21  C2  <0> d   1      -6.169   3.052   0.266  0.00  0.00     0.124 C 
ATOM     22  C1  <0> d   1      -6.477   3.044  -1.232  0.00  0.00     0.027 C 
ENDBRANCH  14  21
BRANCH  19  23
ATOM     23  O1  <0> d   1      -4.739   9.396   1.413  0.00  0.00    -0.356 OA
ATOM     24  C11 <0> d   1      -5.928  10.189   1.404  0.00  0.00     0.210 C 
ENDBRANCH  19  23
ENDBRANCH   1  12
BRANCH   9  25
ATOM     25  C21 <0> d   1      -1.639  -0.601   0.200  0.00  0.00     0.279 C 
BRANCH  25  26
ATOM     26  N2  <0> d   1      -1.785  -0.851  -1.240  0.00  0.00    -0.063 N 
ATOM     27  H32 <0> d   1      -0.834  -1.261  -1.611  0.00  0.00     0.280 HD
BRANCH  26  28
ATOM     28  C22 <0> d   1      -2.837  -1.843  -1.498  0.00  0.00     0.261 C 
BRANCH  28  29
ATOM     29  C23 <0> d   1      -2.793  -2.262  -2.969  0.00  0.00     0.194 C 
BRANCH  29  30
ATOM     30  O4  <0> d   1      -1.562  -2.937  -3.236  0.00  0.00    -0.394 OA
ATOM     31  C24 <0> d   1      -1.420  -3.372  -4.590  0.00  0.00     0.201 C 
ENDBRANCH  29  30
ENDBRANCH  28  29
ENDBRANCH  26  28
BRANCH  26  32
ATOM     32  C25 <0> d   1      -2.050   0.398  -1.967  0.00  0.00     0.261 C 
BRANCH  32  33
ATOM     33  C26 <0> d   1      -0.724   1.066  -2.335  0.00  0.00     0.194 C 
BRANCH  33  34
ATOM     34  O5  <0> d   1      -0.022   0.246  -3.272  0.00  0.00    -0.394 OA
ATOM     35  C27 <0> d   1       1.238   0.781  -3.683  0.00  0.00     0.201 C 
ENDBRANCH  33  34
ENDBRANCH  32  33
ENDBRANCH  26  32
ENDBRANCH  25  26
ENDBRANCH   9  25
BRANCH   8  36
ATOM     36  O6  <0> d   1       0.831  -1.951   0.266  0.00  0.00    -0.360 OA
ATOM     37  H33 <0> d   1      -0.124  -2.464   0.079  0.00  0.00     0.217 HD
ENDBRANCH   8  36
TORSDOF 12
