REMARK  4 active torsions:
REMARK  status: ('A' for Active; 'I' for Inactive)
REMARK    1  A    between atoms: N2_5  and  C6_8 
REMARK    2  A    between atoms: C6_8  and  C7_9 
REMARK    3  A    between atoms: C8_10  and  O3_27 
REMARK    4  A    between atoms: C14_17  and  C15_18 
ROOT
ATOM      1  C7  <0> d   1       2.320  -4.040   1.198  0.00  0.00     0.038 A 
ATOM      2  C8  <0> d   1       3.641  -4.319   0.886  0.00  0.00     0.076 A 
ATOM      3  C9  <0> d   1       4.436  -5.051   1.762  0.00  0.00     0.038 A 
ATOM      4  C10 <0> d   1       3.919  -5.504   2.943  0.00  0.00     0.021 A 
ATOM      5  C11 <0> d   1       2.591  -5.231   3.270  0.00  0.00     0.051 A 
ATOM      6  C12 <0> d   1       1.780  -4.489   2.396  0.00  0.00     0.101 A 
ATOM      7  O1  <0> d   1       0.546  -4.349   2.927  0.00  0.00    -0.305 OA
ATOM      8  C13 <0> d   1       0.446  -4.952   4.135  0.00  0.00     0.127 A 
ATOM      9  C14 <0> d   1      -0.658  -4.992   4.923  0.00  0.00     0.053 C 
ATOM     10  C21 <0> d   1       1.749  -5.566   4.434  0.00  0.00     0.218 A 
ATOM     11  O2  <0> d   1       2.066  -6.199   5.426  0.00  0.00    -0.284 OA
ENDROOT
BRANCH   1  12
ATOM     12  C6  <0> d   1       1.471  -3.245   0.239  0.00  0.00     0.317 C 
BRANCH  12  13
ATOM     13  N2  <0> d   1       1.595  -1.814   0.546  0.00  0.00     0.096 N 
ATOM     14  C3  <0> d   1       0.976  -0.995  -0.505  0.00  0.00     0.303 C 
ATOM     15  C2  <0> d   1       1.195   0.487  -0.189  0.00  0.00     0.302 C 
ATOM     16  N1  <0> d   1       0.615   0.795   1.126  0.00  0.00     0.087 N 
ATOM     17  C1  <0> d   1       0.739   2.226   1.433  0.00  0.00     0.310 C 
ATOM     18  C5  <0> d   1       1.234  -0.025   2.177  0.00  0.00     0.302 C 
ATOM     19  C4  <0> d   1       1.015  -1.506   1.861  0.00  0.00     0.303 C 
ENDBRANCH  12  13
ENDBRANCH   1  12
BRANCH   2  20
ATOM     20  O3  <0> d   1       4.165  -3.874  -0.285  0.00  0.00    -0.360 OA
ATOM     21  H21 <0> d   1       4.568  -2.997  -0.228  0.00  0.00     0.217 HD
ENDBRANCH   2  20
BRANCH   9  22
ATOM     22  C15 <0> d   1      -1.935  -4.463   4.424  0.00  0.00    -0.033 A 
ATOM     23  C20 <0> d   1      -3.033  -4.350   5.285  0.00  0.00     0.014 A 
ATOM     24  C19 <0> d   1      -4.226  -3.847   4.813  0.00  0.00     0.043 A 
ATOM     25  C18 <0> d   1      -4.343  -3.465   3.485  0.00  0.00     0.116 A 
ATOM     26  C17 <0> d   1      -3.261  -3.579   2.625  0.00  0.00     0.043 A 
ATOM     27  F1  <0> d   1      -5.517  -2.978   3.027  0.00  0.00    -0.206 F 
ATOM     28  C16 <0> d   1      -2.061  -4.074   3.085  0.00  0.00     0.014 A 
ENDBRANCH   9  22
TORSDOF 4
