REMARK  6 active torsions:
REMARK  status: ('A' for Active; 'I' for Inactive)
REMARK    1  A    between atoms: O1_2  and  C2_3 
REMARK    2  A    between atoms: C5_6  and  C8_9 
REMARK    3  A    between atoms: C14_16  and  O4_33 
REMARK    4  A    between atoms: C15_17  and  C17_20 
REMARK    5  A    between atoms: C17_20  and  N1_21 
REMARK    6  A    between atoms: C22_26  and  C23_27 
ROOT
ATOM      1  C8  <0> d   1      -4.950  -2.613   0.035  0.00  0.00     0.053 C 
ATOM      2  C9  <0> d   1      -5.005  -3.965  -0.069  0.00  0.00     0.127 A 
ATOM      3  C10 <0> d   1      -6.225  -4.778  -0.183  0.00  0.00     0.218 A 
ATOM      4  O2  <0> d   1      -7.380  -4.391  -0.205  0.00  0.00    -0.284 OA
ATOM      5  C11 <0> d   1      -5.737  -6.167  -0.266  0.00  0.00     0.051 A 
ATOM      6  C12 <0> d   1      -6.381  -7.399  -0.387  0.00  0.00     0.021 A 
ATOM      7  C13 <0> d   1      -5.646  -8.549  -0.440  0.00  0.00     0.038 A 
ATOM      8  C14 <0> d   1      -4.256  -8.494  -0.375  0.00  0.00     0.076 A 
ATOM      9  C15 <0> d   1      -3.603  -7.278  -0.255  0.00  0.00     0.038 A 
ATOM     10  C16 <0> d   1      -4.336  -6.099  -0.200  0.00  0.00     0.101 A 
ATOM     11  O3  <0> d   1      -3.947  -4.810  -0.092  0.00  0.00    -0.305 OA
ENDROOT
BRANCH   9  12
ATOM     12  C17 <0> d   1      -2.099  -7.234  -0.184  0.00  0.00     0.317 C 
BRANCH  12  13
ATOM     13  N1  <0> d   1      -1.548  -7.117  -1.541  0.00  0.00     0.101 N 
ATOM     14  C22 <0> d   1      -0.092  -7.308  -1.537  0.00  0.00     0.257 C 
ATOM     15  C21 <0> d   1       0.426  -7.324  -2.977  0.00  0.00     0.041 C 
ATOM     16  C20 <0> d   1       0.068  -6.000  -3.658  0.00  0.00     0.004 C 
ATOM     17  C19 <0> d   1      -1.449  -5.801  -3.606  0.00  0.00     0.030 C 
ATOM     18  C18 <0> d   1      -1.913  -5.830  -2.147  0.00  0.00     0.273 C 
BRANCH  14  19
ATOM     19  C23 <0> d   1       0.240  -8.617  -0.869  0.00  0.00    -0.007 A 
ATOM     20  C27 <0> d   1      -0.539  -9.736  -1.096  0.00  0.00     0.125 A 
ATOM     21  N2  <0> d   1      -0.251 -10.887  -0.520  0.00  0.00    -0.273 NA
ATOM     22  C26 <0> d   1       0.775 -11.015   0.298  0.00  0.00     0.116 A 
ATOM     23  C25 <0> d   1       1.596  -9.938   0.576  0.00  0.00     0.020 A 
ATOM     24  C24 <0> d   1       1.329  -8.714  -0.016  0.00  0.00     0.012 A 
ENDBRANCH  14  19
ENDBRANCH  12  13
ENDBRANCH   9  12
BRANCH   8  25
ATOM     25  O4  <0> d   1      -3.534  -9.643  -0.428  0.00  0.00    -0.360 OA
ATOM     26  H26 <0> d   1      -3.286  -9.910  -1.324  0.00  0.00     0.217 HD
ENDBRANCH   8  25
BRANCH   1  27
ATOM     27  C5  <0> d   1      -3.651  -1.928   0.024  0.00  0.00    -0.033 A 
ATOM     28  C4  <0> d   1      -2.465  -2.672   0.036  0.00  0.00     0.014 A 
ATOM     29  C3  <0> d   1      -1.250  -2.026   0.025  0.00  0.00     0.037 A 
ATOM     30  C2  <0> d   1      -1.199  -0.636   0.001  0.00  0.00     0.068 A 
ATOM     31  C7  <0> d   1      -2.374   0.107  -0.006  0.00  0.00     0.037 A 
ATOM     32  C6  <0> d   1      -3.594  -0.529   0.000  0.00  0.00     0.014 A 
BRANCH  30  33
ATOM     33  O1  <0> d   1       0.002  -0.004  -0.010  0.00  0.00    -0.356 OA
ATOM     34  C1  <0> d   1       1.169  -0.827  -0.002  0.00  0.00     0.210 C 
ENDBRANCH  30  33
ENDBRANCH   1  27
TORSDOF 6
