REMARK  7 active torsions:
REMARK  status: ('A' for Active; 'I' for Inactive)
REMARK    1  A    between atoms: O1_2  and  C2_3 
REMARK    2  A    between atoms: C6_7  and  C9_11 
REMARK    3  A    between atoms: C7_8  and  O2_9 
REMARK    4  A    between atoms: C15_18  and  O5_36 
REMARK    5  A    between atoms: C16_19  and  C18_22 
REMARK    6  A    between atoms: C18_22  and  N1_23 
REMARK    7  A    between atoms: N2_26  and  C23_29 
ROOT
ATOM      1  C9  <0> d   1      -2.616  -3.937  -0.175  0.00  0.00     0.055 C 
ATOM      2  C10 <0> d   1      -3.727  -4.660   0.121  0.00  0.00     0.128 A 
ATOM      3  C11 <0> d   1      -3.768  -6.088   0.463  0.00  0.00     0.218 A 
ATOM      4  O3  <0> d   1      -2.831  -6.864   0.540  0.00  0.00    -0.284 OA
ATOM      5  C12 <0> d   1      -5.196  -6.373   0.693  0.00  0.00     0.051 A 
ATOM      6  C13 <0> d   1      -5.894  -7.528   1.046  0.00  0.00     0.021 A 
ATOM      7  C14 <0> d   1      -7.252  -7.485   1.191  0.00  0.00     0.038 A 
ATOM      8  C15 <0> d   1      -7.940  -6.292   0.988  0.00  0.00     0.076 A 
ATOM      9  C16 <0> d   1      -7.260  -5.137   0.637  0.00  0.00     0.036 A 
ATOM     10  C17 <0> d   1      -5.878  -5.163   0.486  0.00  0.00     0.101 A 
ATOM     11  O4  <0> d   1      -4.997  -4.193   0.162  0.00  0.00    -0.305 OA
ENDROOT
BRANCH   9  12
ATOM     12  C18 <0> d   1      -8.017  -3.853   0.420  0.00  0.00     0.279 C 
BRANCH  12  13
ATOM     13  N1  <0> d   1      -8.110  -3.119   1.689  0.00  0.00    -0.064 N 
ATOM     14  C22 <0> d   1      -8.742  -1.815   1.453  0.00  0.00     0.255 C 
ATOM     15  C21 <0> d   1      -8.736  -1.002   2.752  0.00  0.00     0.150 C 
ATOM     16  N2  <0> d   1      -9.375  -1.805   3.807  0.00  0.00    -0.378 N 
ATOM     17  C20 <0> d   1      -8.912  -3.187   4.003  0.00  0.00     0.150 C 
ATOM     18  C19 <0> d   1      -8.909  -3.896   2.645  0.00  0.00     0.255 C 
ATOM     19  H28 <0> d   1      -7.184  -2.979   2.064  0.00  0.00     0.280 HD
BRANCH  16  20
ATOM     20  C23 <0> d   1     -10.394  -1.269   4.600  0.00  0.00     0.030 A 
ATOM     21  C28 <0> d   1     -10.728   0.075   4.490  0.00  0.00     0.032 A 
ATOM     22  C27 <0> d   1     -11.738   0.601   5.271  0.00  0.00     0.044 A 
ATOM     23  C26 <0> d   1     -12.411  -0.208   6.172  0.00  0.00     0.116 A 
ATOM     24  C25 <0> d   1     -12.076  -1.546   6.287  0.00  0.00     0.044 A 
ATOM     25  F1  <0> d   1     -13.395   0.310   6.939  0.00  0.00    -0.206 F 
ATOM     26  C24 <0> d   1     -11.070  -2.078   5.504  0.00  0.00     0.032 A 
ENDBRANCH  16  20
ENDBRANCH  12  13
ENDBRANCH   9  12
BRANCH   8  27
ATOM     27  O5  <0> d   1      -9.289  -6.260   1.134  0.00  0.00    -0.360 OA
ATOM     28  H27 <0> d   1      -9.582  -6.049   2.031  0.00  0.00     0.217 HD
ENDBRANCH   8  27
BRANCH   1  29
ATOM     29  C6  <0> d   1      -2.726  -2.499  -0.446  0.00  0.00     0.003 A 
ATOM     30  C5  <0> d   1      -3.925  -1.823  -0.184  0.00  0.00     0.014 A 
ATOM     31  C4  <0> d   1      -4.023  -0.473  -0.439  0.00  0.00     0.004 A 
ATOM     32  C3  <0> d   1      -2.941   0.223  -0.955  0.00  0.00     0.040 A 
ATOM     33  C2  <0> d   1      -1.749  -0.431  -1.220  0.00  0.00     0.102 A 
ATOM     34  C7  <0> d   1      -1.633  -1.794  -0.974  0.00  0.00     0.111 A 
BRANCH  33  35
ATOM     35  O1  <0> d   1      -0.692   0.260  -1.726  0.00  0.00    -0.353 OA
ATOM     36  C1  <0> d   1      -0.881   1.658  -1.954  0.00  0.00     0.210 C 
ENDBRANCH  33  35
BRANCH  34  37
ATOM     37  O2  <0> d   1      -0.468  -2.439  -1.239  0.00  0.00    -0.352 OA
ATOM     38  C8  <0> d   1       0.494  -2.500  -0.183  0.00  0.00     0.210 C 
ENDBRANCH  34  37
ENDBRANCH   1  29
TORSDOF 7
