REMARK  7 active torsions:
REMARK  status: ('A' for Active; 'I' for Inactive)
REMARK    1  A    between atoms: C8_9  and  C10_13 
REMARK    2  A    between atoms: C17_22  and  O6_34 
REMARK    3  A    between atoms: C18_23  and  C19_24 
REMARK    4  A    between atoms: C19_24  and  N1_25 
REMARK    5  A    between atoms: N2_28  and  C24_31 
REMARK    6  A    between atoms: C24_31  and  C25_32 
REMARK    7  A    between atoms: C25_32  and  O5_33 
ROOT
ATOM      1  C10 <0> d   1       6.124  -0.541   0.338  0.00  0.00    -0.001 A 
ATOM      2  C11 <0> d   1       6.626  -1.220  -0.761  0.00  0.00     0.096 A 
ATOM      3  C12 <0> d   1       7.897  -1.810  -0.687  0.00  0.00     0.289 A 
ATOM      4  O3  <0> d   1       8.331  -2.405  -1.657  0.00  0.00    -0.260 OA
ATOM      5  O4  <0> d   1       8.648  -1.737   0.423  0.00  0.00    -0.274 OA
ATOM      6  C13 <0> d   1       8.225  -1.092   1.532  0.00  0.00     0.101 A 
ATOM      7  C14 <0> d   1       6.966  -0.467   1.544  0.00  0.00     0.010 A 
ATOM      8  C15 <0> d   1       6.528   0.205   2.687  0.00  0.00     0.018 A 
ATOM      9  C16 <0> d   1       7.329   0.258   3.793  0.00  0.00     0.038 A 
ATOM     10  C17 <0> d   1       8.579  -0.354   3.786  0.00  0.00     0.076 A 
ATOM     11  C18 <0> d   1       9.024  -1.034   2.664  0.00  0.00     0.038 A 
ENDROOT
BRANCH   1  12
ATOM     12  C8  <0> d   1       4.793   0.093   0.298  0.00  0.00     0.052 C 
ATOM     13  C7  <0> d   1       3.646  -0.653   0.070  0.00  0.00     0.032 C 
ATOM     14  C4  <0> d   1       2.404   0.031   0.014  0.00  0.00     0.000 A 
ATOM     15  C3  <0> d   1       2.379   1.438  -0.006  0.00  0.00     0.089 A 
ATOM     16  C5  <0> d   1       1.198  -0.684  -0.001  0.00  0.00     0.033 A 
ATOM     17  C2  <0> d   1       1.161   2.103   0.002  0.00  0.00     0.039 A 
ATOM     18  O2  <0> d   1       3.540   2.137  -0.043  0.00  0.00    -0.274 OA
ATOM     19  C1  <0> d   1      -0.017   1.384   0.010  0.00  0.00     0.022 A 
ATOM     20  C6  <0> d   1       0.002  -0.004   0.002  0.00  0.00     0.011 A 
ATOM     21 Br1  <0> d   1      -1.626  -0.966  -0.004  0.00  0.00    -0.051 Br
ATOM     22  C9  <0> d   1       4.628   1.544   0.500  0.00  0.00     0.299 C 
ATOM     23  O1  <0> d   1       5.444   2.187   1.134  0.00  0.00    -0.259 OA
ENDBRANCH   1  12
BRANCH  11  24
ATOM     24  C19 <0> d   1      10.379  -1.694   2.668  0.00  0.00     0.317 C 
BRANCH  24  25
ATOM     25  N1  <0> d   1      11.391  -0.735   2.205  0.00  0.00     0.096 N 
ATOM     26  C23 <0> d   1      12.748  -1.258   2.417  0.00  0.00     0.303 C 
ATOM     27  C22 <0> d   1      13.771  -0.200   1.998  0.00  0.00     0.302 C 
ATOM     28  N2  <0> d   1      13.559   0.150   0.586  0.00  0.00     0.093 N 
ATOM     29  C21 <0> d   1      12.203   0.673   0.374  0.00  0.00     0.302 C 
ATOM     30  C20 <0> d   1      11.179  -0.385   0.794  0.00  0.00     0.303 C 
BRANCH  28  31
ATOM     31  C24 <0> d   1      14.572   1.109   0.124  0.00  0.00     0.298 C 
BRANCH  31  32
ATOM     32  C25 <0> d   1      15.947   0.439   0.127  0.00  0.00     0.194 C 
BRANCH  32  33
ATOM     33  O5  <0> d   1      15.964  -0.620  -0.832  0.00  0.00    -0.399 OA
ATOM     34  H22 <0> d   1      16.808  -1.090  -0.884  0.00  0.00     0.209 HD
ENDBRANCH  32  33
ENDBRANCH  31  32
ENDBRANCH  28  31
ENDBRANCH  24  25
ENDBRANCH  11  24
BRANCH  10  35
ATOM     35  O6  <0> d   1       9.365  -0.292   4.892  0.00  0.00    -0.360 OA
ATOM     36  H23 <0> d   1       9.229  -1.021   5.513  0.00  0.00     0.217 HD
ENDBRANCH  10  35
TORSDOF 7
