REMARK  10 active torsions:
REMARK  status: ('A' for Active; 'I' for Inactive)
REMARK    1  A    between atoms: C2_2  and  N1_3 
REMARK    2  A    between atoms: C4_5  and  C12_14 
REMARK    3  A    between atoms: C9_10  and  O1_12 
REMARK    4  A    between atoms: C18_21  and  O4_35 
REMARK    5  A    between atoms: C19_22  and  C21_25 
REMARK    6  A    between atoms: C21_25  and  N2_26 
REMARK    7  A    between atoms: N2_26  and  C22_27 
REMARK    8  A    between atoms: N2_26  and  C26_31 
REMARK    9  A    between atoms: C22_27  and  C23_28 
REMARK   10  A    between atoms: C26_31  and  C27_32 
ROOT
ATOM      1  C12 <0> d   1      -1.738   3.735   2.466  0.00  0.00     0.055 C 
ATOM      2  C13 <0> d   1      -0.983   2.669   2.077  0.00  0.00     0.128 A 
ATOM      3  C14 <0> d   1       0.416   2.529   2.271  0.00  0.00     0.218 A 
ATOM      4  O2  <0> d   1       1.173   3.321   2.810  0.00  0.00    -0.284 OA
ATOM      5  C15 <0> d   1       0.759   1.222   1.683  0.00  0.00     0.051 A 
ATOM      6  C16 <0> d   1       1.951   0.510   1.552  0.00  0.00     0.021 A 
ATOM      7  C17 <0> d   1       1.950  -0.712   0.942  0.00  0.00     0.038 A 
ATOM      8  C18 <0> d   1       0.763  -1.248   0.449  0.00  0.00     0.076 A 
ATOM      9  C19 <0> d   1      -0.428  -0.553   0.572  0.00  0.00     0.036 A 
ATOM     10  C20 <0> d   1      -0.444   0.690   1.190  0.00  0.00     0.101 A 
ATOM     11  O3  <0> d   1      -1.440   1.568   1.435  0.00  0.00    -0.305 OA
ENDROOT
BRANCH   1  12
ATOM     12  C4  <0> d   1      -3.175   3.748   2.201  0.00  0.00    -0.005 A 
ATOM     13  C3  <0> d   1      -3.909   2.765   1.572  0.00  0.00     0.103 A 
ATOM     14  N1  <0> d   1      -5.210   3.139   1.513  0.00  0.00    -0.356 N 
ATOM     15  C6  <0> d   1      -5.385   4.379   2.099  0.00  0.00     0.045 A 
ATOM     16  C5  <0> d   1      -4.132   4.814   2.558  0.00  0.00     0.005 A 
ATOM     17  C7  <0> d   1      -6.501   5.186   2.292  0.00  0.00     0.033 A 
ATOM     18  C10 <0> d   1      -4.008   6.047   3.191  0.00  0.00     0.051 A 
ATOM     19  C9  <0> d   1      -5.128   6.837   3.374  0.00  0.00     0.069 A 
ATOM     20  C8  <0> d   1      -6.371   6.404   2.923  0.00  0.00     0.039 A 
BRANCH  14  21
ATOM     21  C2  <0> d   1      -6.283   2.341   0.914  0.00  0.00     0.124 C 
ATOM     22  C1  <0> d   1      -6.500   2.785  -0.534  0.00  0.00     0.027 C 
ENDBRANCH  14  21
BRANCH  19  23
ATOM     23  O1  <0> d   1      -5.015   8.041   3.997  0.00  0.00    -0.356 OA
ATOM     24  C11 <0> d   1      -6.212   8.806   4.153  0.00  0.00     0.210 C 
ENDBRANCH  19  23
ENDBRANCH   1  12
BRANCH   9  25
ATOM     25  C21 <0> d   1      -1.706  -1.144   0.034  0.00  0.00     0.279 C 
BRANCH  25  26
ATOM     26  N2  <0> d   1      -1.755  -0.963  -1.423  0.00  0.00    -0.066 N 
ATOM     27  H36 <0> d   1      -0.801  -1.319  -1.839  0.00  0.00     0.280 HD
BRANCH  26  28
ATOM     28  C22 <0> d   1      -2.834  -1.763  -2.017  0.00  0.00     0.239 C 
BRANCH  28  29
ATOM     29  C23 <0> d   1      -2.629  -1.851  -3.530  0.00  0.00     0.003 C 
ATOM     30  C24 <0> d   1      -1.348  -2.632  -3.827  0.00  0.00     0.011 C 
ATOM     31  C25 <0> d   1      -3.822  -2.568  -4.166  0.00  0.00     0.011 C 
ENDBRANCH  28  29
ENDBRANCH  26  28
BRANCH  26  32
ATOM     32  C26 <0> d   1      -1.898   0.457  -1.772  0.00  0.00     0.239 C 
BRANCH  32  33
ATOM     33  C27 <0> d   1      -0.514   1.103  -1.858  0.00  0.00     0.003 C 
ATOM     34  C28 <0> d   1       0.280   0.460  -2.997  0.00  0.00     0.011 C 
ATOM     35  C29 <0> d   1      -0.666   2.602  -2.124  0.00  0.00     0.011 C 
ENDBRANCH  32  33
ENDBRANCH  26  32
ENDBRANCH  25  26
ENDBRANCH   9  25
BRANCH   8  36
ATOM     36  O4  <0> d   1       0.774  -2.464  -0.156  0.00  0.00    -0.360 OA
ATOM     37  H37 <0> d   1      -0.161  -2.892  -0.546  0.00  0.00     0.217 HD
ENDBRANCH   8  36
TORSDOF 10
