REMARK  3 active torsions:
REMARK  status: ('A' for Active; 'I' for Inactive)
REMARK    1  A    between atoms: N2_5  and  C6_8 
REMARK    2  A    between atoms: C6_8  and  C7_9 
REMARK    3  A    between atoms: C6_8  and  N3_15 
ROOT
ATOM      1  C6  <0> d   1      -0.800   1.987  -1.118  0.00  0.00     0.489 C 
ENDROOT
BRANCH   1   2
ATOM      2  N2  <0> d   1      -0.189   1.718   0.190  0.00  0.00     0.130 N 
ATOM      3  C3  <0> d   1       0.045   0.279   0.376  0.00  0.00     0.306 C 
ATOM      4  C2  <0> d   1       0.607   0.033   1.778  0.00  0.00     0.302 C 
ATOM      5  N1  <0> d   1       1.855   0.791   1.942  0.00  0.00     0.087 N 
ATOM      6  C1  <0> d   1       2.466   0.522   3.250  0.00  0.00     0.310 C 
ATOM      7  C5  <0> d   1       1.622   2.231   1.756  0.00  0.00     0.302 C 
ATOM      8  C4  <0> d   1       1.059   2.477   0.354  0.00  0.00     0.306 C 
ENDBRANCH   1   2
BRANCH   1   9
ATOM      9  C7  <0> d   1      -2.254   1.591  -1.085  0.00  0.00     0.005 A 
ATOM     10  C12 <0> d   1      -2.944   1.395  -2.266  0.00  0.00     0.011 A 
ATOM     11  C11 <0> d   1      -4.277   1.031  -2.235  0.00  0.00     0.001 A 
ATOM     12  C10 <0> d   1      -4.920   0.864  -1.023  0.00  0.00     0.000 A 
ATOM     13  C9  <0> d   1      -4.230   1.060   0.158  0.00  0.00     0.001 A 
ATOM     14  C8  <0> d   1      -2.895   1.419   0.128  0.00  0.00     0.011 A 
ENDBRANCH   1   9
BRANCH   1  15
ATOM     15  N3  <0> d   1      -0.105   1.211  -2.153  0.00  0.00     0.130 N 
ATOM     16  C16 <0> d   1       1.353   1.287  -1.979  0.00  0.00     0.303 C 
ATOM     17  C15 <0> d   1       2.040   0.533  -3.120  0.00  0.00     0.264 C 
ATOM     18  N4  <0> d   1       1.586  -0.865  -3.123  0.00  0.00    -0.072 N 
ATOM     19  C14 <0> d   1       0.129  -0.941  -3.297  0.00  0.00     0.264 C 
ATOM     20  C17 <0> d   1       2.281  -1.641  -4.158  0.00  0.00     0.269 C 
ATOM     21  H29 <0> d   1       1.835  -1.305  -2.147  0.00  0.00     0.279 HD
ATOM     22  C13 <0> d   1      -0.559  -0.187  -2.157  0.00  0.00     0.303 C 
ENDBRANCH   1  15
TORSDOF 3
