REMARK  6 active torsions:
REMARK  status: ('A' for Active; 'I' for Inactive)
REMARK    1  A    between atoms: C2_2  and  N1_3 
REMARK    2  A    between atoms: N2_6  and  C7_9 
REMARK    3  A    between atoms: C7_9  and  C8_10 
REMARK    4  A    between atoms: C8_10  and  O1_11 
REMARK    5  A    between atoms: O1_11  and  C9_12 
REMARK    6  A    between atoms: C14_17  and  C18_23 
ROOT
ATOM      1  C9  <0> d   1       0.015   1.341  -0.154  0.00  0.00     0.071 A 
ATOM      2  C10 <0> d   1      -1.192   2.030  -0.047  0.00  0.00     0.038 A 
ATOM      3  C11 <0> d   1      -1.211   3.393  -0.058  0.00  0.00     0.017 A 
ATOM      4  C12 <0> d   1      -0.011   4.110  -0.189  0.00  0.00     0.005 A 
ATOM      5  C13 <0> d   1      -0.026   5.528  -0.206  0.00  0.00    -0.032 A 
ATOM      6  C14 <0> d   1       1.159   6.201  -0.335  0.00  0.00     0.057 A 
ATOM      7  C15 <0> d   1       2.402   5.434  -0.450  0.00  0.00     0.300 A 
ATOM      8  O2  <0> d   1       3.465   6.016  -0.564  0.00  0.00    -0.259 OA
ATOM      9  O3  <0> d   1       2.373   4.091  -0.429  0.00  0.00    -0.274 OA
ATOM     10  C16 <0> d   1       1.208   3.418  -0.302  0.00  0.00     0.093 A 
ATOM     11  C17 <0> d   1       1.209   2.030  -0.283  0.00  0.00     0.075 A 
ATOM     12  C24 <0> d   1      -1.326   6.282  -0.086  0.00  0.00     0.050 C 
ENDROOT
BRANCH   1  13
ATOM     13  O1  <0> d   1       0.019  -0.017  -0.136  0.00  0.00    -0.349 OA
BRANCH  13  14
ATOM     14  C8  <0> d   1      -1.246  -0.668   0.001  0.00  0.00     0.203 C 
BRANCH  14  15
ATOM     15  C7  <0> d   1      -1.041  -2.184   0.000  0.00  0.00     0.261 C 
BRANCH  15  16
ATOM     16  N2  <0> d   1      -0.274  -2.575   1.190  0.00  0.00    -0.066 N 
ATOM     17  C4  <0> d   1      -1.117  -2.545   2.394  0.00  0.00     0.265 C 
ATOM     18  C3  <0> d   1      -0.264  -2.880   3.619  0.00  0.00     0.300 C 
ATOM     19  N1  <0> d   1       0.347  -4.205   3.441  0.00  0.00     0.091 N 
ATOM     20  C6  <0> d   1       1.190  -4.234   2.237  0.00  0.00     0.300 C 
ATOM     21  C5  <0> d   1       0.337  -3.899   1.011  0.00  0.00     0.265 C 
ATOM     22  H28 <0> d   1       0.536  -1.843   1.325  0.00  0.00     0.280 HD
BRANCH  19  23
ATOM     23  C2  <0> d   1       1.115  -4.596   4.630  0.00  0.00     0.268 C 
ATOM     24  C1  <0> d   1       1.524  -6.065   4.513  0.00  0.00     0.037 C 
ENDBRANCH  19  23
ENDBRANCH  15  16
ENDBRANCH  14  15
ENDBRANCH  13  14
ENDBRANCH   1  13
BRANCH   6  25
ATOM     25  C18 <0> d   1       1.184   7.682  -0.357  0.00  0.00    -0.019 A 
ATOM     26  C23 <0> d   1       1.813   8.386   0.670  0.00  0.00     0.014 A 
ATOM     27  C22 <0> d   1       1.834   9.766   0.644  0.00  0.00     0.024 A 
ATOM     28  C21 <0> d   1       1.233  10.450  -0.398  0.00  0.00     0.034 A 
ATOM     29  C20 <0> d   1       0.607   9.756  -1.420  0.00  0.00     0.024 A 
ATOM     30 Cl1  <0> d   1       1.263  12.186  -0.424  0.00  0.00    -0.084 Cl
ATOM     31  C19 <0> d   1       0.585   8.377  -1.407  0.00  0.00     0.014 A 
ENDBRANCH   6  25
TORSDOF 6
