REMARK  2 active torsions:
REMARK  status: ('A' for Active; 'I' for Inactive)
REMARK    1  A    between atoms: C9_10  and  C10_11 
REMARK    2  A    between atoms: N2_20  and  C18_23 
ROOT
ATOM      1  C1  <0> d   1       0.068   1.497   0.006  0.00  0.00     0.054 C 
ATOM      2  C2  <0> d   1       0.082  -0.010   0.000  0.00  0.00     0.007 A 
ATOM      3  C3  <0> d   1       0.101  -0.697  -1.206  0.00  0.00     0.087 A 
ATOM      4  C4  <0> d   1       0.114  -2.088  -1.224  0.00  0.00     0.003 A 
ATOM      5  C5  <0> d   1       0.106  -2.789  -0.050  0.00  0.00     0.030 A 
ATOM      6  C6  <0> d   1       0.087  -2.111   1.169  0.00  0.00     0.052 A 
ATOM      7  C7  <0> d   1       0.080  -0.707   1.201  0.00  0.00     0.099 A 
ATOM      8  O1  <0> d   1       0.070  -0.280   2.482  0.00  0.00    -0.305 OA
ATOM      9  C8  <0> d   1       0.072  -1.313   3.357  0.00  0.00     0.128 A 
ATOM     10  C9  <0> d   1       0.063  -1.217   4.710  0.00  0.00     0.054 C 
ATOM     11  C15 <0> d   1       0.075  -2.559   2.573  0.00  0.00     0.218 A 
ATOM     12  O2  <0> d   1       0.080  -3.703   2.991  0.00  0.00    -0.284 OA
ATOM     13  C16 <0> d   1       0.139  -2.838  -2.531  0.00  0.00     0.279 C 
ATOM     14  N2  <0> d   1      -0.289  -1.951  -3.621  0.00  0.00    -0.042 N 
ATOM     15  C17 <0> d   1       0.485  -0.701  -3.551  0.00  0.00     0.410 C 
ATOM     16  O3  <0> d   1       0.106   0.007  -2.368  0.00  0.00    -0.323 OA
ATOM     17  H23 <0> d   1      -1.272  -1.746  -3.523  0.00  0.00     0.283 HD
ENDROOT
BRANCH  10  18
ATOM     18  C10 <0> d   1       0.164   0.100   5.354  0.00  0.00    -0.016 A 
ATOM     19  C14 <0> d   1       0.282   0.205   6.744  0.00  0.00     0.127 A 
ATOM     20  N1  <0> d   1       0.377   1.386   7.319  0.00  0.00    -0.272 NA
ATOM     21  C13 <0> d   1       0.355   2.506   6.622  0.00  0.00     0.116 A 
ATOM     22  C12 <0> d   1       0.236   2.488   5.243  0.00  0.00     0.020 A 
ATOM     23  C11 <0> d   1       0.138   1.275   4.587  0.00  0.00     0.014 A 
ENDBRANCH  10  18
BRANCH  14  24
ATOM     24  C18 <0> d   1      -0.048  -2.607  -4.913  0.00  0.00     0.191 C 
ATOM     25  C22 <0> d   1      -0.842  -3.923  -4.992  0.00  0.00     0.033 C 
ATOM     26  C21 <0> d   1      -1.807  -3.783  -6.187  0.00  0.00     0.002 C 
ATOM     27  C20 <0> d   1      -1.143  -2.715  -7.090  0.00  0.00     0.002 C 
ATOM     28  C19 <0> d   1      -0.559  -1.714  -6.062  0.00  0.00     0.033 C 
ENDBRANCH  14  24
TORSDOF 2
