REMARK  5 active torsions:
REMARK  status: ('A' for Active; 'I' for Inactive)
REMARK    1  A    between atoms: C3_3  and  C19_24 
REMARK    2  A    between atoms: C9_10  and  C11_13 
REMARK    3  A    between atoms: C11_13  and  N1_14 
REMARK    4  A    between atoms: N1_14  and  C12_15 
REMARK    5  A    between atoms: C12_15  and  C13_16 
ROOT
ATOM      1  C1  <0> d   1      -3.671   5.874   2.743  0.00  0.00     0.077 C 
ATOM      2  C2  <0> d   1      -2.417   6.147   3.533  0.00  0.00     0.065 A 
ATOM      3  C3  <0> d   1      -2.533   6.556   4.822  0.00  0.00     0.054 A 
ATOM      4  C4  <0> d   1      -1.307   6.823   5.594  0.00  0.00     0.198 A 
ATOM      5  O1  <0> d   1      -1.350   7.192   6.755  0.00  0.00    -0.286 OA
ATOM      6  C5  <0> d   1      -0.026   6.622   4.894  0.00  0.00     0.050 A 
ATOM      7  C6  <0> d   1       1.193   6.847   5.535  0.00  0.00     0.021 A 
ATOM      8  C7  <0> d   1       2.362   6.651   4.858  0.00  0.00     0.041 A 
ATOM      9  C8  <0> d   1       2.343   6.228   3.530  0.00  0.00     0.118 A 
ATOM     10  C9  <0> d   1       1.142   6.000   2.880  0.00  0.00     0.039 A 
ATOM     11  C10 <0> d   1      -0.056   6.200   3.553  0.00  0.00     0.100 A 
ATOM     12  O2  <0> d   1      -1.234   5.978   2.936  0.00  0.00    -0.313 OA
ATOM     13  O3  <0> d   1       3.513   6.037   2.869  0.00  0.00    -0.191 OA
ENDROOT
BRANCH  10  14
ATOM     14  C11 <0> d   1       1.135   5.543   1.444  0.00  0.00     0.276 C 
BRANCH  14  15
ATOM     15  N1  <0> d   1       1.156   4.075   1.397  0.00  0.00    -0.067 N 
ATOM     16  H8  <0> d   1       2.064   3.705   1.895  0.00  0.00     0.277 HD
ATOM     17  H19 <0> d   1       0.268   3.679   1.912  0.00  0.00     0.277 HD
BRANCH  15  18
ATOM     18  C12 <0> d   1       1.150   3.592   0.010  0.00  0.00     0.271 C 
BRANCH  18  19
ATOM     19  C13 <0> d   1       1.171   2.086   0.002  0.00  0.00    -0.033 A 
ATOM     20  C18 <0> d   1       2.378   1.412  -0.013  0.00  0.00     0.010 A 
ATOM     21  C17 <0> d   1       2.398   0.030  -0.021  0.00  0.00     0.024 A 
ATOM     22  C16 <0> d   1       1.210  -0.679  -0.013  0.00  0.00     0.034 A 
ATOM     23  C15 <0> d   1       0.002  -0.004   0.002  0.00  0.00     0.024 A 
ATOM     24 Cl1  <0> d   1       1.234  -2.415  -0.022  0.00  0.00    -0.084 Cl
ATOM     25  C14 <0> d   1      -0.017   1.378   0.010  0.00  0.00     0.010 A 
ENDBRANCH  18  19
ENDBRANCH  15  18
ENDBRANCH  14  15
ENDBRANCH  10  14
BRANCH   3  26
ATOM     26  C19 <0> d   1      -3.869   6.731   5.442  0.00  0.00    -0.019 A 
ATOM     27  C24 <0> d   1      -4.296   7.997   5.839  0.00  0.00     0.015 A 
ATOM     28  C23 <0> d   1      -5.540   8.155   6.415  0.00  0.00     0.043 A 
ATOM     29  C22 <0> d   1      -6.365   7.058   6.598  0.00  0.00     0.116 A 
ATOM     30  C21 <0> d   1      -5.945   5.797   6.206  0.00  0.00     0.043 A 
ATOM     31  F1  <0> d   1      -7.582   7.217   7.163  0.00  0.00    -0.206 F 
ATOM     32  C20 <0> d   1      -4.705   5.630   5.625  0.00  0.00     0.015 A 
ENDBRANCH   3  26
TORSDOF 5
