REMARK  6 active torsions:
REMARK  status: ('A' for Active; 'I' for Inactive)
REMARK    1  A    between atoms: C4_4  and  O5_31 
REMARK    2  A    between atoms: C5_5  and  C19_23 
REMARK    3  A    between atoms: C10_11  and  C11_12 
REMARK    4  A    between atoms: C13_14  and  O3_20 
REMARK    5  A    between atoms: C16_17  and  O2_18 
REMARK    6  A    between atoms: C19_23  and  N1_24 
ROOT
ATOM      1  C1  <0> d   1      -0.700   1.601   0.141  0.00  0.00     0.049 C 
ATOM      2  C2  <0> d   1      -0.775   0.096   0.115  0.00  0.00    -0.042 A 
ATOM      3  C3  <0> d   1      -1.035  -0.556  -1.058  0.00  0.00     0.045 A 
ATOM      4  C4  <0> d   1      -1.105  -1.946  -1.084  0.00  0.00     0.077 A 
ATOM      5  C5  <0> d   1      -0.913  -2.684   0.073  0.00  0.00     0.038 A 
ATOM      6  C6  <0> d   1      -0.648  -2.037   1.273  0.00  0.00     0.102 A 
ATOM      7  C7  <0> d   1      -0.574  -0.634   1.286  0.00  0.00     0.057 A 
ATOM      8  C8  <0> d   1      -0.276  -0.247   2.677  0.00  0.00     0.219 A 
ATOM      9  O1  <0> d   1      -0.134   0.878   3.124  0.00  0.00    -0.284 OA
ATOM     10  C9  <0> d   1      -0.189  -1.522   3.404  0.00  0.00     0.128 A 
ATOM     11  C10 <0> d   1       0.070  -1.674   4.729  0.00  0.00     0.055 C 
ATOM     12  O4  <0> d   1      -0.427  -2.516   2.516  0.00  0.00    -0.305 OA
ENDROOT
BRANCH  11  13
ATOM     13  C11 <0> d   1      -0.017  -3.002   5.345  0.00  0.00     0.003 A 
ATOM     14  C16 <0> d   1      -0.102  -3.129   6.742  0.00  0.00     0.078 A 
ATOM     15  C15 <0> d   1      -0.189  -4.387   7.314  0.00  0.00     0.040 A 
ATOM     16  C14 <0> d   1      -0.181  -5.515   6.517  0.00  0.00     0.039 A 
ATOM     17  C13 <0> d   1      -0.091  -5.399   5.135  0.00  0.00     0.069 A 
ATOM     18  C12 <0> d   1      -0.010  -4.152   4.546  0.00  0.00     0.051 A 
BRANCH  14  19
ATOM     19  O2  <0> d   1      -0.105  -2.021   7.527  0.00  0.00    -0.355 OA
ATOM     20  C17 <0> d   1      -0.194  -2.227   8.938  0.00  0.00     0.210 C 
ENDBRANCH  14  19
BRANCH  17  21
ATOM     21  O3  <0> d   1      -0.085  -6.516   4.360  0.00  0.00    -0.356 OA
ATOM     22  C18 <0> d   1      -0.172  -7.774   5.033  0.00  0.00     0.210 C 
ENDBRANCH  17  21
ENDBRANCH  11  13
BRANCH   5  23
ATOM     23  C19 <0> d   1      -0.994  -4.188   0.029  0.00  0.00     0.317 C 
BRANCH  23  24
ATOM     24  N1  <0> d   1       0.338  -4.742  -0.251  0.00  0.00     0.096 N 
ATOM     25  C23 <0> d   1       0.261  -6.181  -0.535  0.00  0.00     0.303 C 
ATOM     26  C22 <0> d   1       1.653  -6.702  -0.899  0.00  0.00     0.302 C 
ATOM     27  N2  <0> d   1       2.578  -6.436   0.211  0.00  0.00     0.087 N 
ATOM     28  C21 <0> d   1       2.656  -4.997   0.495  0.00  0.00     0.302 C 
ATOM     29  C24 <0> d   1       3.910  -6.990  -0.069  0.00  0.00     0.310 C 
ATOM     30  C20 <0> d   1       1.263  -4.476   0.859  0.00  0.00     0.303 C 
ENDBRANCH  23  24
ENDBRANCH   5  23
BRANCH   4  31
ATOM     31  O5  <0> d   1      -1.365  -2.584  -2.254  0.00  0.00    -0.360 OA
ATOM     32  H28 <0> d   1      -0.574  -2.810  -2.763  0.00  0.00     0.217 HD
ENDBRANCH   4  31
TORSDOF 6
