REMARK  5 active torsions:
REMARK  status: ('A' for Active; 'I' for Inactive)
REMARK    1  A    between atoms: C6_6  and  C12_14 
REMARK    2  A    between atoms: C12_14  and  N1_15 
REMARK    3  A    between atoms: N2_18  and  C17_21 
REMARK    4  A    between atoms: C17_21  and  C18_22 
REMARK    5  A    between atoms: C17_21  and  C24_28 
ROOT
ATOM      1  N1  <0> d   1       3.564  -1.234   1.551  0.00  0.00     0.096 N 
ATOM      2  C13 <0> d   1       3.661   0.124   2.103  0.00  0.00     0.300 C 
ATOM      3  C14 <0> d   1       4.109   0.047   3.565  0.00  0.00     0.266 C 
ATOM      4  N2  <0> d   1       5.403  -0.644   3.643  0.00  0.00    -0.055 N 
ATOM      5  C15 <0> d   1       5.305  -2.003   3.090  0.00  0.00     0.266 C 
ATOM      6  C16 <0> d   1       4.858  -1.925   1.628  0.00  0.00     0.300 C 
ATOM      7  H33 <0> d   1       6.126  -0.081   3.034  0.00  0.00     0.281 HD
ENDROOT
BRANCH   1   8
ATOM      8  C12 <0> d   1       3.064  -1.206   0.170  0.00  0.00     0.312 C 
BRANCH   8   9
ATOM      9  C6  <0> d   1       1.592  -0.879   0.175  0.00  0.00    -0.011 A 
ATOM     10  C5  <0> d   1       0.848  -0.736  -1.080  0.00  0.00     0.013 A 
ATOM     11  C4  <0> d   1       1.482  -0.899  -2.316  0.00  0.00    -0.048 A 
ATOM     12  C9  <0> d   1      -0.523  -0.431  -1.029  0.00  0.00     0.097 A 
ATOM     13  C3  <0> d   1       0.762  -0.760  -3.470  0.00  0.00     0.015 A 
ATOM     14  C30 <0> d   1       2.951  -1.227  -2.376  0.00  0.00     0.049 C 
ATOM     15  C2  <0> d   1      -0.592  -0.459  -3.423  0.00  0.00    -0.053 A 
ATOM     16  C1  <0> d   1      -1.367  -0.310  -4.707  0.00  0.00     0.049 C 
ATOM     17  C10 <0> d   1      -1.235  -0.295  -2.214  0.00  0.00    -0.021 A 
ATOM     18  C11 <0> d   1      -2.706   0.031  -2.179  0.00  0.00     0.052 C 
ATOM     19  O2  <0> d   1      -1.133  -0.275   0.165  0.00  0.00    -0.274 OA
ATOM     20  C8  <0> d   1      -0.458  -0.404   1.318  0.00  0.00     0.288 A 
ATOM     21  C7  <0> d   1       0.920  -0.710   1.341  0.00  0.00     0.092 A 
ATOM     22  O1  <0> d   1      -1.050  -0.255   2.372  0.00  0.00    -0.260 OA
ENDBRANCH   8   9
ENDBRANCH   1   8
BRANCH   4  23
ATOM     23  C17 <0> d   1       5.903  -0.673   5.024  0.00  0.00     0.254 C 
BRANCH  23  24
ATOM     24  C18 <0> d   1       7.284  -1.276   5.046  0.00  0.00    -0.023 A 
ATOM     25  C23 <0> d   1       7.609  -2.222   6.000  0.00  0.00     0.009 A 
ATOM     26  C22 <0> d   1       8.875  -2.776   6.020  0.00  0.00     0.001 A 
ATOM     27  C21 <0> d   1       9.816  -2.384   5.086  0.00  0.00     0.000 A 
ATOM     28  C20 <0> d   1       9.491  -1.439   4.132  0.00  0.00     0.001 A 
ATOM     29  C19 <0> d   1       8.223  -0.888   4.109  0.00  0.00     0.009 A 
ENDBRANCH  23  24
BRANCH  23  30
ATOM     30  C24 <0> d   1       5.960   0.732   5.566  0.00  0.00    -0.023 A 
ATOM     31  C29 <0> d   1       5.614   0.980   6.881  0.00  0.00     0.009 A 
ATOM     32  C28 <0> d   1       5.667   2.269   7.378  0.00  0.00     0.001 A 
ATOM     33  C27 <0> d   1       6.066   3.310   6.561  0.00  0.00     0.000 A 
ATOM     34  C26 <0> d   1       6.412   3.062   5.245  0.00  0.00     0.001 A 
ATOM     35  C25 <0> d   1       6.364   1.772   4.749  0.00  0.00     0.009 A 
ENDBRANCH  23  30
ENDBRANCH   4  23
TORSDOF 5
