REMARK  6 active torsions:
REMARK  status: ('A' for Active; 'I' for Inactive)
REMARK    1  A    between atoms: C3_4  and  C10_11 
REMARK    2  A    between atoms: C17_19  and  C19_22 
REMARK    3  A    between atoms: C19_22  and  N2_23 
REMARK    4  A    between atoms: N3_26  and  C24_29 
REMARK    5  A    between atoms: C24_29  and  C25_30 
REMARK    6  A    between atoms: C25_30  and  O3_31 
ROOT
ATOM      1  C10 <0> d   1      -0.499   6.798   0.356  0.00  0.00     0.055 C 
ATOM      2  C11 <0> d   1       0.025   8.055   0.314  0.00  0.00     0.128 A 
ATOM      3  C12 <0> d   1      -0.718   9.265   0.340  0.00  0.00     0.218 A 
ATOM      4  O1  <0> d   1      -1.930   9.389   0.403  0.00  0.00    -0.284 OA
ATOM      5  C13 <0> d   1       0.289  10.338   0.278  0.00  0.00     0.051 A 
ATOM      6  C14 <0> d   1       0.211  11.731   0.269  0.00  0.00     0.021 A 
ATOM      7  C15 <0> d   1       1.353  12.476   0.196  0.00  0.00     0.041 A 
ATOM      8  C16 <0> d   1       2.595  11.850   0.131  0.00  0.00     0.118 A 
ATOM      9  C17 <0> d   1       2.689  10.468   0.138  0.00  0.00     0.039 A 
ATOM     10  C18 <0> d   1       1.537   9.697   0.212  0.00  0.00     0.101 A 
ATOM     11  O2  <0> d   1       1.341   8.361   0.236  0.00  0.00    -0.305 OA
ATOM     12  O4  <0> d   1       3.724  12.601   0.058  0.00  0.00    -0.191 OA
ENDROOT
BRANCH   9  13
ATOM     13  C19 <0> d   1       4.039   9.803   0.067  0.00  0.00     0.279 C 
BRANCH  13  14
ATOM     14  N2  <0> d   1       4.398   9.574  -1.339  0.00  0.00    -0.064 N 
ATOM     15  C23 <0> d   1       5.799   9.148  -1.463  0.00  0.00     0.265 C 
ATOM     16  C22 <0> d   1       6.156   8.997  -2.943  0.00  0.00     0.300 C 
ATOM     17  N3  <0> d   1       5.253   8.018  -3.565  0.00  0.00     0.093 N 
ATOM     18  C21 <0> d   1       3.853   8.444  -3.442  0.00  0.00     0.300 C 
ATOM     19  C20 <0> d   1       3.496   8.595  -1.961  0.00  0.00     0.265 C 
ATOM     20  H27 <0> d   1       4.285  10.528  -1.875  0.00  0.00     0.280 HD
BRANCH  17  21
ATOM     21  C24 <0> d   1       5.612   7.789  -4.971  0.00  0.00     0.298 C 
BRANCH  21  22
ATOM     22  C25 <0> d   1       5.142   8.974  -5.816  0.00  0.00     0.194 C 
BRANCH  22  23
ATOM     23  O3  <0> d   1       5.879  10.143  -5.450  0.00  0.00    -0.399 OA
ATOM     24  H26 <0> d   1       5.678  11.100  -5.954  0.00  0.00     0.209 HD
ENDBRANCH  22  23
ENDBRANCH  21  22
ENDBRANCH  17  21
ENDBRANCH  13  14
ENDBRANCH   9  13
BRANCH   1  25
ATOM     25  C3  <0> d   1       0.385   5.636   0.315  0.00  0.00    -0.005 A 
ATOM     26  C2  <0> d   1       1.761   5.646   0.236  0.00  0.00     0.103 A 
ATOM     27  N1  <0> d   1       2.223   4.371   0.221  0.00  0.00    -0.360 N 
ATOM     28  C1  <0> d   1       3.638   3.997   0.143  0.00  0.00     0.156 C 
ATOM     29  C5  <0> d   1       1.176   3.475   0.289  0.00  0.00     0.045 A 
ATOM     30  C4  <0> d   1      -0.016   4.216   0.351  0.00  0.00     0.002 A 
ATOM     31  C6  <0> d   1       1.116   2.086   0.304  0.00  0.00     0.030 A 
ATOM     32  C9  <0> d   1      -1.242   3.561   0.427  0.00  0.00     0.014 A 
ATOM     33  C8  <0> d   1      -1.281   2.183   0.436  0.00  0.00     0.001 A 
ATOM     34  C7  <0> d   1      -0.105   1.450   0.380  0.00  0.00     0.002 A 
ENDBRANCH   1  25
TORSDOF 6
