REMARK  3 active torsions:
REMARK  status: ('A' for Active; 'I' for Inactive)
REMARK    1  A    between atoms: C4_5  and  N2_7 
REMARK    2  A    between atoms: N3_10  and  C10_13 
REMARK    3  A    between atoms: C10_13  and  C11_14 
ROOT
ATOM      1  C11 <0> d   1       0.244  -6.735  -1.667  0.00  0.00    -0.011 A 
ATOM      2  C12 <0> d   1      -0.963  -6.663  -2.283  0.00  0.00     0.092 A 
ATOM      3  C13 <0> d   1      -1.974  -7.593  -1.956  0.00  0.00     0.288 A 
ATOM      4  O1  <0> d   1      -3.053  -7.517  -2.515  0.00  0.00    -0.260 OA
ATOM      5  O2  <0> d   1      -1.776  -8.557  -1.044  0.00  0.00    -0.275 OA
ATOM      6  C14 <0> d   1      -0.599  -8.684  -0.395  0.00  0.00     0.090 A 
ATOM      7  C15 <0> d   1       0.454  -7.795  -0.676  0.00  0.00     0.007 A 
ATOM      8  C16 <0> d   1       1.674  -7.929  -0.009  0.00  0.00     0.022 A 
ATOM      9  C17 <0> d   1       1.843  -8.936   0.918  0.00  0.00    -0.051 A 
ATOM     10  C18 <0> d   1       0.806  -9.817   1.190  0.00  0.00    -0.049 A 
ATOM     11  C19 <0> d   1      -0.409  -9.688   0.543  0.00  0.00     0.046 A 
ATOM     12  C20 <0> d   1       1.250 -10.819   2.236  0.00  0.00     0.039 C 
ATOM     13  C21 <0> d   1       2.791 -10.732   2.251  0.00  0.00     0.009 C 
ATOM     14  C22 <0> d   1       3.048  -9.290   1.764  0.00  0.00     0.039 C 
ENDROOT
BRANCH   1  15
ATOM     15  C10 <0> d   1       1.341  -5.756  -1.996  0.00  0.00     0.312 C 
BRANCH  15  16
ATOM     16  N3  <0> d   1       1.319  -4.651  -1.028  0.00  0.00     0.095 N 
ATOM     17  C7  <0> d   1       2.511  -3.804  -1.169  0.00  0.00     0.292 C 
ATOM     18  C6  <0> d   1       2.541  -2.778  -0.031  0.00  0.00     0.154 C 
ATOM     19  N2  <0> d   1       1.260  -2.054  -0.021  0.00  0.00    -0.362 N 
ATOM     20  C9  <0> d   1       0.017  -2.839  -0.013  0.00  0.00     0.154 C 
ATOM     21  C8  <0> d   1       0.086  -3.863  -1.158  0.00  0.00     0.292 C 
BRANCH  19  22
ATOM     22  C4  <0> d   1       1.227  -0.664  -0.013  0.00  0.00     0.125 A 
ATOM     23  N1  <0> d   1       2.339   0.020  -0.230  0.00  0.00    -0.244 NA
ATOM     24  C3  <0> d   1       2.351   1.340  -0.231  0.00  0.00     0.119 A 
ATOM     25  C2  <0> d   1       1.194   2.058  -0.004  0.00  0.00     0.019 A 
ATOM     26  C1  <0> d   1       0.005   1.378   0.228  0.00  0.00     0.005 A 
ATOM     27  C5  <0> d   1       0.025  -0.005   0.223  0.00  0.00     0.050 A 
ENDBRANCH  19  22
ENDBRANCH  15  16
ENDBRANCH   1  15
TORSDOF 3
