REMARK  11 active torsions:
REMARK  status: ('A' for Active; 'I' for Inactive)
REMARK    1  A    between atoms: O1_2  and  C2_3 
REMARK    2  A    between atoms: C2_3  and  C3_4 
REMARK    3  A    between atoms: C3_4  and  N1_5 
REMARK    4  A    between atoms: N1_5  and  C4_6 
REMARK    5  A    between atoms: N1_5  and  C7_10 
REMARK    6  A    between atoms: C4_6  and  C5_7 
REMARK    7  A    between atoms: C5_7  and  O2_8 
REMARK    8  A    between atoms: C7_10  and  C8_11 
REMARK    9  A    between atoms: C15_19  and  C16_20 
REMARK   10  A    between atoms: C19_23  and  C22_26 
REMARK   11  A    between atoms: C22_26  and  O5_28 
ROOT
ATOM      1  C8  <0> d   1       0.516  -4.234  -0.416  0.00  0.00     0.039 A 
ATOM      2  C9  <0> d   1      -0.477  -4.652   0.457  0.00  0.00     0.118 A 
ATOM      3  C10 <0> d   1      -1.602  -5.320  -0.019  0.00  0.00     0.041 A 
ATOM      4  C11 <0> d   1      -1.738  -5.571  -1.355  0.00  0.00     0.021 A 
ATOM      5  C12 <0> d   1      -0.746  -5.155  -2.245  0.00  0.00     0.051 A 
ATOM      6  C13 <0> d   1       0.391  -4.475  -1.778  0.00  0.00     0.101 A 
ATOM      7  O3  <0> d   1       1.200  -4.171  -2.816  0.00  0.00    -0.305 OA
ATOM      8  C14 <0> d   1       0.690  -4.597  -3.994  0.00  0.00     0.127 A 
ATOM      9  C15 <0> d   1       1.259  -4.446  -5.215  0.00  0.00     0.053 C 
ATOM     10  C24 <0> d   1      -0.592  -5.266  -3.707  0.00  0.00     0.218 A 
ATOM     11  O6  <0> d   1      -1.358  -5.783  -4.500  0.00  0.00    -0.284 OA
ATOM     12  O7  <0> d   1      -0.351  -4.408   1.786  0.00  0.00    -0.191 OA
ENDROOT
BRANCH   1  13
ATOM     13  C7  <0> d   1       1.728  -3.511   0.113  0.00  0.00     0.279 C 
BRANCH  13  14
ATOM     14  N1  <0> d   1       1.467  -2.065   0.130  0.00  0.00    -0.063 N 
ATOM     15  H27 <0> d   1       1.152  -1.769  -0.781  0.00  0.00     0.280 HD
BRANCH  14  16
ATOM     16  C3  <0> d   1       0.430  -1.766   1.127  0.00  0.00     0.261 C 
BRANCH  16  17
ATOM     17  C2  <0> d   1       0.082  -0.277   1.070  0.00  0.00     0.194 C 
BRANCH  17  18
ATOM     18  O1  <0> d   1      -0.514   0.024  -0.194  0.00  0.00    -0.394 OA
ATOM     19  C1  <0> d   1      -0.776   1.414  -0.395  0.00  0.00     0.201 C 
ENDBRANCH  17  18
ENDBRANCH  16  17
ENDBRANCH  14  16
BRANCH  14  20
ATOM     20  C4  <0> d   1       2.701  -1.349   0.478  0.00  0.00     0.261 C 
BRANCH  20  21
ATOM     21  C5  <0> d   1       3.228  -1.861   1.820  0.00  0.00     0.194 C 
BRANCH  21  22
ATOM     22  O2  <0> d   1       3.691  -3.205   1.668  0.00  0.00    -0.394 OA
ATOM     23  C6  <0> d   1       4.103  -3.819   2.890  0.00  0.00     0.201 C 
ENDBRANCH  21  22
ENDBRANCH  20  21
ENDBRANCH  14  20
ENDBRANCH  13  14
ENDBRANCH   1  13
BRANCH   9  24
ATOM     24  C16 <0> d   1       2.618  -3.897  -5.330  0.00  0.00    -0.033 A 
ATOM     25  C21 <0> d   1       3.151  -3.606  -6.591  0.00  0.00     0.012 A 
ATOM     26  C20 <0> d   1       4.417  -3.090  -6.697  0.00  0.00     0.018 A 
ATOM     27  C19 <0> d   1       5.178  -2.863  -5.546  0.00  0.00     0.039 A 
ATOM     28  C18 <0> d   1       4.649  -3.158  -4.287  0.00  0.00     0.018 A 
ATOM     29  C17 <0> d   1       3.381  -3.670  -4.178  0.00  0.00     0.012 A 
BRANCH  27  30
ATOM     30  C22 <0> d   1       6.543  -2.312  -5.662  0.00  0.00     0.292 C 
ATOM     31  O4  <0> d   1       7.205  -2.115  -4.663  0.00  0.00    -0.259 OA
BRANCH  30  32
ATOM     32  O5  <0> d   1       7.055  -2.027  -6.876  0.00  0.00    -0.323 OA
ATOM     33  C23 <0> d   1       8.381  -1.496  -6.913  0.00  0.00     0.213 C 
ENDBRANCH  30  32
ENDBRANCH  27  30
ENDBRANCH   9  24
TORSDOF 11
