REMARK  3 active torsions:
REMARK  status: ('A' for Active; 'I' for Inactive)
REMARK    1  A    between atoms: C6_6  and  C12_14 
REMARK    2  A    between atoms: C12_14  and  N1_15 
REMARK    3  A    between atoms: N2_18  and  C17_21 
ROOT
ATOM      1  C1  <0> d   1       1.060   1.194  -0.745  0.00  0.00     0.049 C 
ATOM      2  C2  <0> d   1       0.853  -0.292  -0.602  0.00  0.00    -0.053 A 
ATOM      3  C3  <0> d   1       0.712  -1.077  -1.737  0.00  0.00     0.008 A 
ATOM      4  C4  <0> d   1       0.525  -2.427  -1.628  0.00  0.00     0.015 A 
ATOM      5  C5  <0> d   1       0.475  -3.019  -0.362  0.00  0.00     0.007 A 
ATOM      6  C6  <0> d   1       0.276  -4.464  -0.211  0.00  0.00    -0.011 A 
ATOM      7  C7  <0> d   1       0.237  -4.977   1.045  0.00  0.00     0.092 A 
ATOM      8  C8  <0> d   1       0.387  -4.121   2.158  0.00  0.00     0.288 A 
ATOM      9  O1  <0> d   1       0.351  -4.594   3.279  0.00  0.00    -0.260 OA
ATOM     10  O2  <0> d   1       0.570  -2.800   2.011  0.00  0.00    -0.274 OA
ATOM     11  C9  <0> d   1       0.617  -2.226   0.790  0.00  0.00     0.096 A 
ATOM     12  C10 <0> d   1       0.812  -0.857   0.655  0.00  0.00    -0.021 A 
ATOM     13  C11 <0> d   1       0.973   0.007   1.878  0.00  0.00     0.052 C 
ENDROOT
BRANCH   6  14
ATOM     14  C12 <0> d   1       0.117  -5.354  -1.416  0.00  0.00     0.312 C 
BRANCH  14  15
ATOM     15  N1  <0> d   1      -1.288  -5.355  -1.843  0.00  0.00     0.095 N 
ATOM     16  C16 <0> d   1      -1.528  -6.387  -2.861  0.00  0.00     0.292 C 
ATOM     17  C15 <0> d   1      -3.031  -6.478  -3.146  0.00  0.00     0.154 C 
ATOM     18  N2  <0> d   1      -3.523  -5.136  -3.493  0.00  0.00    -0.362 N 
ATOM     19  C14 <0> d   1      -3.203  -4.022  -2.588  0.00  0.00     0.154 C 
ATOM     20  C13 <0> d   1      -1.693  -4.028  -2.325  0.00  0.00     0.292 C 
BRANCH  18  21
ATOM     21  C17 <0> d   1      -4.271  -4.927  -4.646  0.00  0.00     0.125 A 
ATOM     22  N3  <0> d   1      -4.366  -5.889  -5.550  0.00  0.00    -0.244 NA
ATOM     23  C21 <0> d   1      -5.070  -5.733  -6.655  0.00  0.00     0.119 A 
ATOM     24  C20 <0> d   1      -5.727  -4.547  -6.914  0.00  0.00     0.019 A 
ATOM     25  C19 <0> d   1      -5.648  -3.510  -5.994  0.00  0.00     0.005 A 
ATOM     26  C18 <0> d   1      -4.908  -3.705  -4.842  0.00  0.00     0.050 A 
ENDBRANCH  18  21
ENDBRANCH  14  15
ENDBRANCH   6  14
TORSDOF 3
