REMARK  7 active torsions:
REMARK  status: ('A' for Active; 'I' for Inactive)
REMARK    1  A    between atoms: C5_5  and  C19_23 
REMARK    2  A    between atoms: C10_11  and  C11_12 
REMARK    3  A    between atoms: C15_16  and  O3_20 
REMARK    4  A    between atoms: C16_17  and  O2_18 
REMARK    5  A    between atoms: C19_23  and  N1_24 
REMARK    6  A    between atoms: N2_27  and  C24_30 
REMARK    7  A    between atoms: C27_33  and  O5_36 
ROOT
ATOM      1  C1  <0> d   1       0.928  -0.034  -2.002  0.00  0.00     0.049 C 
ATOM      2  C2  <0> d   1       1.437  -1.429  -1.746  0.00  0.00    -0.042 A 
ATOM      3  C3  <0> d   1       2.089  -2.112  -2.734  0.00  0.00     0.048 A 
ATOM      4  C4  <0> d   1       2.561  -3.401  -2.499  0.00  0.00     0.118 A 
ATOM      5  C5  <0> d   1       2.376  -4.005  -1.266  0.00  0.00     0.039 A 
ATOM      6  C6  <0> d   1       1.715  -3.325  -0.251  0.00  0.00     0.102 A 
ATOM      7  C7  <0> d   1       1.249  -2.023  -0.498  0.00  0.00     0.057 A 
ATOM      8  C8  <0> d   1       0.609  -1.568   0.750  0.00  0.00     0.219 A 
ATOM      9  O1  <0> d   1       0.070  -0.495   0.963  0.00  0.00    -0.284 OA
ATOM     10  C9  <0> d   1       0.764  -2.697   1.677  0.00  0.00     0.128 A 
ATOM     11  C10 <0> d   1       0.328  -2.745   2.962  0.00  0.00     0.055 C 
ATOM     12  O4  <0> d   1       1.411  -3.685   1.015  0.00  0.00    -0.305 OA
ATOM     13  O6  <0> d   1       3.207  -4.071  -3.487  0.00  0.00    -0.191 OA
ENDROOT
BRANCH   5  14
ATOM     14  C19 <0> d   1       2.891  -5.401  -1.026  0.00  0.00     0.279 C 
BRANCH  14  15
ATOM     15  N1  <0> d   1       4.265  -5.334  -0.512  0.00  0.00    -0.064 N 
ATOM     16  C23 <0> d   1       4.808  -6.693  -0.392  0.00  0.00     0.255 C 
ATOM     17  C22 <0> d   1       6.278  -6.620   0.034  0.00  0.00     0.150 C 
ATOM     18  N2  <0> d   1       6.366  -5.820   1.266  0.00  0.00    -0.378 N 
ATOM     19  C21 <0> d   1       5.705  -4.506   1.288  0.00  0.00     0.150 C 
ATOM     20  C20 <0> d   1       4.263  -4.679   0.802  0.00  0.00     0.255 C 
ATOM     21  H32 <0> d   1       4.836  -4.800  -1.150  0.00  0.00     0.280 HD
BRANCH  18  22
ATOM     22  C24 <0> d   1       7.059  -6.296   2.385  0.00  0.00     0.030 A 
ATOM     23  C29 <0> d   1       7.244  -5.474   3.489  0.00  0.00     0.032 A 
ATOM     24  C28 <0> d   1       7.923  -5.946   4.595  0.00  0.00     0.039 A 
ATOM     25  C27 <0> d   1       8.430  -7.237   4.598  0.00  0.00     0.068 A 
ATOM     26  C26 <0> d   1       8.251  -8.057   3.494  0.00  0.00     0.039 A 
ATOM     27  C25 <0> d   1       7.567  -7.588   2.389  0.00  0.00     0.032 A 
BRANCH  25  28
ATOM     28  O5  <0> d   1       9.104  -7.700   5.685  0.00  0.00    -0.356 OA
ATOM     29  C30 <0> d   1       9.252  -6.802   6.787  0.00  0.00     0.210 C 
ENDBRANCH  25  28
ENDBRANCH  18  22
ENDBRANCH  14  15
ENDBRANCH   5  14
BRANCH  11  30
ATOM     30  C11 <0> d   1       0.508  -3.968   3.753  0.00  0.00     0.003 A 
ATOM     31  C16 <0> d   1       0.285  -3.952   5.139  0.00  0.00     0.111 A 
ATOM     32  C15 <0> d   1       0.454  -5.119   5.876  0.00  0.00     0.102 A 
ATOM     33  C14 <0> d   1       0.852  -6.286   5.244  0.00  0.00     0.040 A 
ATOM     34  C13 <0> d   1       1.079  -6.302   3.877  0.00  0.00     0.004 A 
ATOM     35  C12 <0> d   1       0.911  -5.157   3.131  0.00  0.00     0.014 A 
BRANCH  31  36
ATOM     36  O2  <0> d   1      -0.099  -2.805   5.755  0.00  0.00    -0.352 OA
ATOM     37  C17 <0> d   1      -1.504  -2.562   5.856  0.00  0.00     0.210 C 
ENDBRANCH  31  36
BRANCH  32  38
ATOM     38  O3  <0> d   1       0.234  -5.113   7.218  0.00  0.00    -0.353 OA
ATOM     39  C18 <0> d   1       0.433  -6.346   7.913  0.00  0.00     0.210 C 
ENDBRANCH  32  38
ENDBRANCH  11  30
TORSDOF 7
