REMARK  3 active torsions:
REMARK  status: ('A' for Active; 'I' for Inactive)
REMARK    1  A    between atoms: C9_10  and  C10_11 
REMARK    2  A    between atoms: N1_19  and  C17_22 
REMARK    3  A    between atoms: C17_22  and  C18_23 
ROOT
ATOM      1  C1  <0> d   1       3.731  -0.693  -0.034  0.00  0.00     0.054 C 
ATOM      2  C2  <0> d   1       2.407   0.028  -0.019  0.00  0.00     0.007 A 
ATOM      3  C3  <0> d   1       2.375   1.416  -0.011  0.00  0.00     0.087 A 
ATOM      4  C4  <0> d   1       1.158   2.091   0.002  0.00  0.00     0.005 A 
ATOM      5  C5  <0> d   1      -0.017   1.389   0.010  0.00  0.00     0.030 A 
ATOM      6  C6  <0> d   1       0.002  -0.004   0.002  0.00  0.00     0.052 A 
ATOM      7  C7  <0> d   1       1.225  -0.696  -0.013  0.00  0.00     0.099 A 
ATOM      8  O1  <0> d   1       0.973  -2.023  -0.019  0.00  0.00    -0.305 OA
ATOM      9  C8  <0> d   1      -0.357  -2.275  -0.007  0.00  0.00     0.128 A 
ATOM     10  C9  <0> d   1      -0.935  -3.511  -0.009  0.00  0.00     0.060 C 
ATOM     11  C14 <0> d   1      -1.050  -1.035   0.006  0.00  0.00     0.218 A 
ATOM     12  O2  <0> d   1      -2.258  -0.861   0.020  0.00  0.00    -0.284 OA
ATOM     13  C15 <0> d   1       1.114   3.598   0.005  0.00  0.00     0.317 C 
ATOM     14  N1  <0> d   1       2.423   4.129   0.409  0.00  0.00     0.120 N 
ATOM     15  C16 <0> d   1       3.494   3.485  -0.370  0.00  0.00     0.448 C 
ATOM     16  O3  <0> d   1       3.548   2.101  -0.014  0.00  0.00    -0.320 OA
ENDROOT
BRANCH  14  17
ATOM     17  C17 <0> d   1       2.469   5.589   0.258  0.00  0.00     0.315 C 
BRANCH  17  18
ATOM     18  C18 <0> d   1       3.734   6.120   0.882  0.00  0.00    -0.013 A 
ATOM     19  C22 <0> d   1       4.887   6.241   0.130  0.00  0.00     0.125 A 
ATOM     20  N2  <0> d   1       5.998   6.705   0.668  0.00  0.00    -0.273 NA
ATOM     21  C21 <0> d   1       6.055   7.069   1.934  0.00  0.00     0.116 A 
ATOM     22  C20 <0> d   1       4.942   6.975   2.748  0.00  0.00     0.020 A 
ATOM     23  C19 <0> d   1       3.754   6.497   2.216  0.00  0.00     0.012 A 
ENDBRANCH  17  18
ENDBRANCH  14  17
BRANCH  10  24
ATOM     24  C10 <0> d   1      -0.125  -4.668  -0.025  0.00  0.00     0.007 A 
ATOM     25  S1  <0> d   1       1.654  -4.796  -0.052  0.00  0.00    -0.102 SA
ATOM     26  C13 <0> d   1       1.791  -6.525  -0.058  0.00  0.00     0.050 A 
ATOM     27  C12 <0> d   1       0.497  -6.941  -0.046  0.00  0.00     0.008 A 
ATOM     28  C11 <0> d   1      -0.508  -6.007  -0.029  0.00  0.00     0.019 A 
ENDBRANCH  10  24
TORSDOF 3
