REMARK  4 active torsions:
REMARK  status: ('A' for Active; 'I' for Inactive)
REMARK    1  A    between atoms: O1_2  and  C2_3 
REMARK    2  A    between atoms: C7_8  and  C8_9 
REMARK    3  A    between atoms: C16_19  and  C17_20 
REMARK    4  A    between atoms: C17_20  and  N1_21 
ROOT
ATOM      1  C8  <0> d   1       6.814  -2.777  -0.290  0.00  0.00     0.050 A 
ATOM      2  C9  <0> d   1       5.503  -3.002  -0.016  0.00  0.00     0.159 A 
ATOM      3  O2  <0> d   1       4.766  -2.160   0.714  0.00  0.00    -0.320 OA
ATOM      4  C10 <0> d   1       5.252  -1.019   1.242  0.00  0.00     0.100 A 
ATOM      5  C11 <0> d   1       6.594  -0.656   1.033  0.00  0.00     0.050 A 
ATOM      6  C12 <0> d   1       7.445  -1.552   0.229  0.00  0.00     0.198 A 
ATOM      7  O3  <0> d   1       8.617  -1.297   0.015  0.00  0.00    -0.286 OA
ATOM      8  C13 <0> d   1       7.100   0.522   1.584  0.00  0.00     0.021 A 
ATOM      9  C14 <0> d   1       6.285   1.329   2.325  0.00  0.00     0.041 A 
ATOM     10  C15 <0> d   1       4.952   0.981   2.532  0.00  0.00     0.118 A 
ATOM     11  C16 <0> d   1       4.435  -0.185   1.993  0.00  0.00     0.039 A 
ATOM     12  O4  <0> d   1       4.152   1.793   3.270  0.00  0.00    -0.191 OA
ENDROOT
BRANCH   1  13
ATOM     13  C7  <0> d   1       7.592  -3.741  -1.105  0.00  0.00     0.013 A 
ATOM     14  C2  <0> d   1       8.661  -4.439  -0.537  0.00  0.00     0.079 A 
ATOM     15  C3  <0> d   1       9.379  -5.342  -1.304  0.00  0.00     0.037 A 
ATOM     16  C4  <0> d   1       9.045  -5.542  -2.631  0.00  0.00     0.003 A 
ATOM     17  C5  <0> d   1       7.991  -4.849  -3.198  0.00  0.00     0.001 A 
ATOM     18  C6  <0> d   1       7.264  -3.950  -2.443  0.00  0.00     0.015 A 
BRANCH  14  19
ATOM     19  O1  <0> d   1       8.992  -4.238   0.766  0.00  0.00    -0.355 OA
ATOM     20  C1  <0> d   1      10.096  -4.986   1.278  0.00  0.00     0.210 C 
ENDBRANCH  14  19
ENDBRANCH   1  13
BRANCH  11  21
ATOM     21  C17 <0> d   1       2.991  -0.550   2.226  0.00  0.00     0.279 C 
BRANCH  21  22
ATOM     22  N1  <0> d   1       2.163   0.021   1.155  0.00  0.00    -0.067 N 
ATOM     23  C22 <0> d   1       2.171   1.488   1.210  0.00  0.00     0.235 C 
ATOM     24  C21 <0> d   1       1.421   2.049  -0.001  0.00  0.00     0.028 C 
ATOM     25  C20 <0> d   1      -0.019   1.527   0.010  0.00  0.00     0.003 C 
ATOM     26  C19 <0> d   1       0.002  -0.004   0.002  0.00  0.00     0.028 C 
ATOM     27  C18 <0> d   1       0.793  -0.505   1.212  0.00  0.00     0.235 C 
ATOM     28  H23 <0> d   1       2.598  -0.281   0.191  0.00  0.00     0.280 HD
ENDBRANCH  21  22
ENDBRANCH  11  21
TORSDOF 4
