REMARK  4 active torsions:
REMARK  status: ('A' for Active; 'I' for Inactive)
REMARK    1  A    between atoms: C3_4  and  C10_11 
REMARK    2  A    between atoms: C16_18  and  O3_28 
REMARK    3  A    between atoms: C17_19  and  C19_22 
REMARK    4  A    between atoms: C19_22  and  N2_23 
ROOT
ATOM      1  C10 <0> d   1      -0.742   6.461  -0.053  0.00  0.00     0.055 C 
ATOM      2  C11 <0> d   1      -0.262   7.736  -0.025  0.00  0.00     0.128 A 
ATOM      3  C12 <0> d   1      -1.048   8.918  -0.006  0.00  0.00     0.218 A 
ATOM      4  O1  <0> d   1      -2.265   8.999  -0.010  0.00  0.00    -0.284 OA
ATOM      5  C13 <0> d   1      -0.078  10.026   0.023  0.00  0.00     0.051 A 
ATOM      6  C14 <0> d   1      -0.206  11.415   0.051  0.00  0.00     0.021 A 
ATOM      7  C15 <0> d   1       0.912  12.201   0.068  0.00  0.00     0.038 A 
ATOM      8  C16 <0> d   1       2.177  11.620   0.056  0.00  0.00     0.076 A 
ATOM      9  C17 <0> d   1       2.320  10.243   0.027  0.00  0.00     0.036 A 
ATOM     10  C18 <0> d   1       1.194   9.430   0.010  0.00  0.00     0.101 A 
ATOM     11  O2  <0> d   1       1.045   8.089  -0.018  0.00  0.00    -0.305 OA
ENDROOT
BRANCH   1  12
ATOM     12  C3  <0> d   1       0.185   5.331  -0.077  0.00  0.00    -0.005 A 
ATOM     13  C2  <0> d   1       1.562   5.391  -0.076  0.00  0.00     0.103 A 
ATOM     14  N1  <0> d   1       2.069   4.134  -0.103  0.00  0.00    -0.360 N 
ATOM     15  C1  <0> d   1       3.498   3.811  -0.109  0.00  0.00     0.156 C 
ATOM     16  C5  <0> d   1       1.052   3.201  -0.123  0.00  0.00     0.045 A 
ATOM     17  C4  <0> d   1      -0.167   3.898  -0.107  0.00  0.00     0.002 A 
ATOM     18  C6  <0> d   1       1.042   1.811  -0.153  0.00  0.00     0.030 A 
ATOM     19  C9  <0> d   1      -1.371   3.200  -0.123  0.00  0.00     0.014 A 
ATOM     20  C8  <0> d   1      -1.361   1.822  -0.158  0.00  0.00     0.001 A 
ATOM     21  C7  <0> d   1      -0.158   1.132  -0.168  0.00  0.00     0.002 A 
ENDBRANCH   1  12
BRANCH   9  22
ATOM     22  C19 <0> d   1       3.695   9.627   0.015  0.00  0.00     0.279 C 
BRANCH  22  23
ATOM     23  N2  <0> d   1       4.204   9.538   1.390  0.00  0.00    -0.067 N 
ATOM     24  C23 <0> d   1       5.511   8.846   1.428  0.00  0.00     0.235 C 
ATOM     25  C22 <0> d   1       5.563   8.050   2.745  0.00  0.00     0.029 C 
ATOM     26  C21 <0> d   1       4.201   8.310   3.428  0.00  0.00     0.029 C 
ATOM     27  C20 <0> d   1       3.295   8.731   2.244  0.00  0.00     0.235 C 
ATOM     28  H22 <0> d   1       4.287  10.575   1.746  0.00  0.00     0.280 HD
ENDBRANCH  22  23
ENDBRANCH   9  22
BRANCH   8  29
ATOM     29  O3  <0> d   1       3.281  12.411   0.072  0.00  0.00    -0.360 OA
ATOM     30  H23 <0> d   1       4.283  11.957   0.063  0.00  0.00     0.217 HD
ENDBRANCH   8  29
TORSDOF 4
