REMARK  5 active torsions:
REMARK  status: ('A' for Active; 'I' for Inactive)
REMARK    1  A    between atoms: C6_6  and  C7_7 
REMARK    2  A    between atoms: C7_7  and  N1_8 
REMARK    3  A    between atoms: N2_11  and  C12_14 
REMARK    4  A    between atoms: C12_14  and  C13_15 
REMARK    5  A    between atoms: C19_23  and  O3_26 
ROOT
ATOM      1  N1  <0> d   1       5.987  -0.943   0.994  0.00  0.00     0.096 N 
ATOM      2  C8  <0> d   1       5.681  -2.303   0.528  0.00  0.00     0.303 C 
ATOM      3  C9  <0> d   1       6.701  -2.716  -0.536  0.00  0.00     0.303 C 
ATOM      4  N2  <0> d   1       8.053  -2.651   0.034  0.00  0.00     0.096 N 
ATOM      5  C10 <0> d   1       8.360  -1.291   0.500  0.00  0.00     0.303 C 
ATOM      6  C11 <0> d   1       7.340  -0.878   1.564  0.00  0.00     0.303 C 
ENDROOT
BRANCH   4   7
ATOM      7  C12 <0> d   1       9.056  -3.113  -0.935  0.00  0.00     0.312 C 
BRANCH   7   8
ATOM      8  C13 <0> d   1       8.656  -4.467  -1.464  0.00  0.00    -0.011 A 
ATOM      9  C17 <0> d   1       8.789  -5.669  -0.635  0.00  0.00     0.009 A 
ATOM     10  C16 <0> d   1       8.404  -6.911  -1.168  0.00  0.00     0.090 A 
ATOM     11  C18 <0> d   1       9.289  -5.592   0.668  0.00  0.00     0.051 A 
ATOM     12  O2  <0> d   1       7.920  -6.981  -2.428  0.00  0.00    -0.275 OA
ATOM     13  C21 <0> d   1       8.525  -8.056  -0.392  0.00  0.00     0.041 A 
ATOM     14  C15 <0> d   1       7.796  -5.885  -3.192  0.00  0.00     0.288 A 
ATOM     15  C14 <0> d   1       8.159  -4.605  -2.719  0.00  0.00     0.092 A 
ATOM     16  O1  <0> d   1       7.355  -5.997  -4.322  0.00  0.00    -0.260 OA
ATOM     17  C20 <0> d   1       9.019  -7.971   0.892  0.00  0.00     0.039 A 
ATOM     18  C19 <0> d   1       9.401  -6.743   1.424  0.00  0.00     0.066 A 
BRANCH  18  19
ATOM     19  O3  <0> d   1       9.887  -6.676   2.692  0.00  0.00    -0.361 OA
ATOM     20  H20 <0> d   1       9.977  -7.591   3.296  0.00  0.00     0.217 HD
ENDBRANCH  18  19
ENDBRANCH   7   8
ENDBRANCH   4   7
BRANCH   1  21
ATOM     21  C7  <0> d   1       4.985  -0.481   1.963  0.00  0.00     0.311 C 
BRANCH  21  22
ATOM     22  C6  <0> d   1       3.653  -0.328   1.274  0.00  0.00    -0.027 A 
ATOM     23  C1  <0> d   1       2.776  -1.395   1.224  0.00  0.00     0.012 A 
ATOM     24  C2  <0> d   1       1.553  -1.260   0.593  0.00  0.00     0.040 A 
ATOM     25  C3  <0> d   1       1.204  -0.054   0.009  0.00  0.00     0.105 A 
ATOM     26  O5  <0> d   1       0.081   0.335  -0.662  0.00  0.00    -0.323 OA
ATOM     27  C4  <0> d   1       2.088   1.022   0.059  0.00  0.00     0.105 A 
ATOM     28  C22 <0> d   1       0.115   1.774  -0.666  0.00  0.00     0.352 C 
ATOM     29  O4  <0> d   1       1.518   2.084  -0.581  0.00  0.00    -0.323 OA
ATOM     30  C5  <0> d   1       3.311   0.879   0.692  0.00  0.00     0.048 A 
ENDBRANCH  21  22
ENDBRANCH   1  21
TORSDOF 5
