REMARK  6 active torsions:
REMARK  status: ('A' for Active; 'I' for Inactive)
REMARK    1  A    between atoms: C3_3  and  O3_28 
REMARK    2  A    between atoms: C10_12  and  C11_13 
REMARK    3  A    between atoms: C11_13  and  N1_14 
REMARK    4  A    between atoms: N2_17  and  C16_20 
REMARK    5  A    between atoms: C16_20  and  C17_21 
REMARK    6  A    between atoms: C17_21  and  C18_22 
ROOT
ATOM      1  C11 <0> d   1       0.071  -4.351   2.466  0.00  0.00     0.312 C 
ENDROOT
BRANCH   1   2
ATOM      2  C10 <0> d   1       0.051  -2.845   2.441  0.00  0.00    -0.011 A 
ATOM      3  C6  <0> d   1       0.036  -2.113   1.173  0.00  0.00     0.007 A 
ATOM      4  C5  <0> d   1       0.039  -2.792  -0.051  0.00  0.00     0.017 A 
ATOM      5  C7  <0> d   1       0.023  -0.706   1.198  0.00  0.00     0.099 A 
ATOM      6  C4  <0> d   1       0.024  -2.086  -1.219  0.00  0.00     0.038 A 
ATOM      7  C3  <0> d   1       0.006  -0.693  -1.200  0.00  0.00     0.074 A 
ATOM      8  C2  <0> d   1       0.002  -0.004   0.002  0.00  0.00     0.006 A 
ATOM      9  C1  <0> d   1      -0.018   1.503   0.010  0.00  0.00     0.054 C 
ATOM     10  O1  <0> d   1       0.025  -0.054   2.380  0.00  0.00    -0.274 OA
ATOM     11  C8  <0> d   1       0.045  -0.719   3.546  0.00  0.00     0.288 A 
ATOM     12  O2  <0> d   1       0.046  -0.089   4.588  0.00  0.00    -0.260 OA
ATOM     13  C9  <0> d   1       0.065  -2.128   3.595  0.00  0.00     0.092 A 
BRANCH   7  14
ATOM     14  O3  <0> d   1      -0.009  -0.004  -2.370  0.00  0.00    -0.360 OA
ATOM     15  H25 <0> d   1       0.870   0.207  -2.713  0.00  0.00     0.217 HD
ENDBRANCH   7  14
ENDBRANCH   1   2
BRANCH   1  16
ATOM     16  N1  <0> d   1      -1.303  -4.861   2.359  0.00  0.00     0.096 N 
ATOM     17  C15 <0> d   1      -1.350  -6.307   2.616  0.00  0.00     0.303 C 
ATOM     18  C14 <0> d   1      -2.804  -6.783   2.575  0.00  0.00     0.302 C 
ATOM     19  N2  <0> d   1      -3.383  -6.465   1.262  0.00  0.00     0.092 N 
ATOM     20  C13 <0> d   1      -3.336  -5.019   1.005  0.00  0.00     0.302 C 
ATOM     21  C12 <0> d   1      -1.882  -4.543   1.046  0.00  0.00     0.303 C 
BRANCH  19  22
ATOM     22  C16 <0> d   1      -4.757  -6.974   1.155  0.00  0.00     0.278 C 
BRANCH  22  23
ATOM     23  C17 <0> d   1      -4.737  -8.504   1.180  0.00  0.00     0.089 C 
BRANCH  23  24
ATOM     24  C18 <0> d   1      -6.146  -9.027   1.071  0.00  0.00     0.035 A 
ATOM     25  N3  <0> d   1      -7.060  -8.622   1.931  0.00  0.00    -0.266 NA
ATOM     26  C22 <0> d   1      -8.306  -9.048   1.871  0.00  0.00     0.117 A 
ATOM     27  C21 <0> d   1      -8.699  -9.951   0.901  0.00  0.00     0.019 A 
ATOM     28  C20 <0> d   1      -7.764 -10.403  -0.018  0.00  0.00     0.003 A 
ATOM     29  C19 <0> d   1      -6.465  -9.929   0.074  0.00  0.00     0.027 A 
ENDBRANCH  23  24
ENDBRANCH  22  23
ENDBRANCH  19  22
ENDBRANCH   1  16
TORSDOF 6
