REMARK  7 active torsions:
REMARK  status: ('A' for Active; 'I' for Inactive)
REMARK    1  A    between atoms: C2_2  and  N1_3 
REMARK    2  A    between atoms: N2_6  and  C7_9 
REMARK    3  A    between atoms: C7_9  and  C8_10 
REMARK    4  A    between atoms: C9_11  and  O5_31 
REMARK    5  A    between atoms: C15_18  and  C16_19 
REMARK    6  A    between atoms: C18_21  and  O3_27 
REMARK    7  A    between atoms: C21_24  and  O2_25 
ROOT
ATOM      1  C8  <0> d   1       2.507   3.561   1.583  0.00  0.00     0.038 A 
ATOM      2  C9  <0> d   1       2.279   4.458   0.552  0.00  0.00     0.076 A 
ATOM      3  C10 <0> d   1       2.287   5.830   0.792  0.00  0.00     0.038 A 
ATOM      4  C11 <0> d   1       2.534   6.305   2.049  0.00  0.00     0.021 A 
ATOM      5  C12 <0> d   1       2.771   5.414   3.095  0.00  0.00     0.051 A 
ATOM      6  C13 <0> d   1       2.759   4.028   2.867  0.00  0.00     0.101 A 
ATOM      7  O1  <0> d   1       3.013   3.374   4.021  0.00  0.00    -0.305 OA
ATOM      8  C14 <0> d   1       3.204   4.230   5.053  0.00  0.00     0.128 A 
ATOM      9  C15 <0> d   1       3.478   3.889   6.339  0.00  0.00     0.055 C 
ATOM     10  C24 <0> d   1       3.062   5.596   4.529  0.00  0.00     0.218 A 
ATOM     11  O4  <0> d   1       3.162   6.645   5.143  0.00  0.00    -0.284 OA
ENDROOT
BRANCH   9  12
ATOM     12  C16 <0> d   1       3.435   2.480   6.748  0.00  0.00     0.003 A 
ATOM     13  C21 <0> d   1       3.355   2.143   8.110  0.00  0.00     0.078 A 
ATOM     14  C20 <0> d   1       3.316   0.810   8.487  0.00  0.00     0.040 A 
ATOM     15  C19 <0> d   1       3.355  -0.184   7.529  0.00  0.00     0.039 A 
ATOM     16  C18 <0> d   1       3.433   0.142   6.179  0.00  0.00     0.069 A 
ATOM     17  C17 <0> d   1       3.469   1.465   5.785  0.00  0.00     0.051 A 
BRANCH  13  18
ATOM     18  O2  <0> d   1       3.317   3.119   9.052  0.00  0.00    -0.355 OA
ATOM     19  C22 <0> d   1       3.236   2.700  10.416  0.00  0.00     0.210 C 
ENDBRANCH  13  18
BRANCH  16  20
ATOM     20  O3  <0> d   1       3.471  -0.846   5.245  0.00  0.00    -0.356 OA
ATOM     21  C23 <0> d   1       3.425  -2.192   5.722  0.00  0.00     0.210 C 
ENDBRANCH  16  20
ENDBRANCH   9  12
BRANCH   1  22
ATOM     22  C7  <0> d   1       2.488   2.079   1.310  0.00  0.00     0.317 C 
BRANCH  22  23
ATOM     23  N2  <0> d   1       1.126   1.564   1.500  0.00  0.00     0.096 N 
ATOM     24  C4  <0> d   1       0.209   2.114   0.491  0.00  0.00     0.303 C 
ATOM     25  C3  <0> d   1      -1.211   1.616   0.771  0.00  0.00     0.302 C 
ATOM     26  N1  <0> d   1      -1.226   0.147   0.748  0.00  0.00     0.091 N 
ATOM     27  C6  <0> d   1      -0.310  -0.403   1.756  0.00  0.00     0.302 C 
ATOM     28  C5  <0> d   1       1.110   0.095   1.477  0.00  0.00     0.303 C 
BRANCH  26  29
ATOM     29  C2  <0> d   1      -2.588  -0.369   0.937  0.00  0.00     0.268 C 
ATOM     30  C1  <0> d   1      -2.608  -1.873   0.660  0.00  0.00     0.037 C 
ENDBRANCH  26  29
ENDBRANCH  22  23
ENDBRANCH   1  22
BRANCH   2  31
ATOM     31  O5  <0> d   1       2.039   3.996  -0.701  0.00  0.00    -0.360 OA
ATOM     32  H28 <0> d   1       1.857   4.704  -1.523  0.00  0.00     0.217 HD
ENDBRANCH   2  31
TORSDOF 7
