REMARK  7 active torsions:
REMARK  status: ('A' for Active; 'I' for Inactive)
REMARK    1  A    between atoms: C6_6  and  C7_7 
REMARK    2  A    between atoms: C14_16  and  O4_28 
REMARK    3  A    between atoms: C15_17  and  C16_18 
REMARK    4  A    between atoms: C16_18  and  N1_19 
REMARK    5  A    between atoms: N2_22  and  C21_25 
REMARK    6  A    between atoms: C21_25  and  C22_26 
REMARK    7  A    between atoms: C22_26  and  O3_27 
ROOT
ATOM      1  C7  <0> d   1       1.369   5.227   4.960  0.00  0.00     0.048 A 
ATOM      2  C8  <0> d   1       1.840   4.670   3.815  0.00  0.00     0.159 A 
ATOM      3  O1  <0> d   1       1.404   3.495   3.354  0.00  0.00    -0.320 OA
ATOM      4  C9  <0> d   1       0.463   2.759   3.978  0.00  0.00     0.100 A 
ATOM      5  C10 <0> d   1      -0.119   3.217   5.174  0.00  0.00     0.050 A 
ATOM      6  C11 <0> d   1       0.328   4.512   5.718  0.00  0.00     0.197 A 
ATOM      7  O2  <0> d   1      -0.133   4.964   6.753  0.00  0.00    -0.286 OA
ATOM      8  C12 <0> d   1      -1.089   2.454   5.824  0.00  0.00     0.021 A 
ATOM      9  C13 <0> d   1      -1.480   1.258   5.293  0.00  0.00     0.038 A 
ATOM     10  C14 <0> d   1      -0.914   0.798   4.106  0.00  0.00     0.076 A 
ATOM     11  C15 <0> d   1       0.050   1.544   3.449  0.00  0.00     0.038 A 
ENDROOT
BRANCH  11  12
ATOM     12  C16 <0> d   1       0.655   1.035   2.166  0.00  0.00     0.317 C 
BRANCH  12  13
ATOM     13  N1  <0> d   1      -0.139   1.513   1.026  0.00  0.00     0.096 N 
ATOM     14  C20 <0> d   1      -0.443   2.945   1.160  0.00  0.00     0.303 C 
ATOM     15  C19 <0> d   1      -1.336   3.385  -0.002  0.00  0.00     0.302 C 
ATOM     16  N2  <0> d   1      -0.651   3.112  -1.273  0.00  0.00     0.093 N 
ATOM     17  C18 <0> d   1      -0.347   1.681  -1.407  0.00  0.00     0.302 C 
ATOM     18  C17 <0> d   1       0.545   1.240  -0.245  0.00  0.00     0.303 C 
BRANCH  16  19
ATOM     19  C21 <0> d   1      -1.445   3.591  -2.413  0.00  0.00     0.298 C 
BRANCH  19  20
ATOM     20  C22 <0> d   1      -1.820   5.058  -2.193  0.00  0.00     0.194 C 
BRANCH  20  21
ATOM     21  O3  <0> d   1      -0.632   5.850  -2.138  0.00  0.00    -0.399 OA
ATOM     22  H22 <0> d   1      -0.702   6.937  -1.984  0.00  0.00     0.209 HD
ENDBRANCH  20  21
ENDBRANCH  19  20
ENDBRANCH  16  19
ENDBRANCH  12  13
ENDBRANCH  11  12
BRANCH  10  23
ATOM     23  O4  <0> d   1      -1.311  -0.392   3.589  0.00  0.00    -0.360 OA
ATOM     24  H23 <0> d   1      -0.868  -0.761   2.652  0.00  0.00     0.217 HD
ENDBRANCH  10  23
BRANCH   1  25
ATOM     25  C6  <0> d   1       1.884   6.535   5.432  0.00  0.00    -0.020 A 
ATOM     26  C1  <0> d   1       0.997   7.552   5.781  0.00  0.00     0.014 A 
ATOM     27  C2  <0> d   1       1.481   8.765   6.224  0.00  0.00     0.024 A 
ATOM     28  C3  <0> d   1       2.846   8.978   6.313  0.00  0.00     0.034 A 
ATOM     29  C4  <0> d   1       3.732   7.973   5.963  0.00  0.00     0.024 A 
ATOM     30 Cl1  <0> d   1       3.449  10.509   6.865  0.00  0.00    -0.084 Cl
ATOM     31  C5  <0> d   1       3.257   6.754   5.523  0.00  0.00     0.014 A 
ENDBRANCH   1  25
TORSDOF 7
