REMARK  2 active torsions:
REMARK  status: ('A' for Active; 'I' for Inactive)
REMARK    1  A    between atoms: C6_6  and  C7_7 
REMARK    2  A    between atoms: C9_9  and  C10_13 
ROOT
ATOM      1  C7  <0> d   1      -1.268  -0.764   0.011  0.00  0.00     0.062 A 
ATOM      2  C8  <0> d   1      -1.394  -2.122   0.004  0.00  0.00     0.066 A 
ATOM      3  C9  <0> d   1      -2.766  -2.425   0.017  0.00  0.00     0.092 A 
ATOM      4  N1  <0> d   1      -3.440  -1.294   0.029  0.00  0.00    -0.174 NA
ATOM      5  N2  <0> d   1      -2.524  -0.234   0.032  0.00  0.00    -0.277 N 
ATOM      6  H1  <0> d   1      -2.745   0.710   0.044  0.00  0.00     0.189 HD
ENDROOT
BRANCH   3   7
ATOM      7  C10 <0> d   1      -3.356  -3.787   0.015  0.00  0.00     0.032 A 
ATOM      8  C15 <0> d   1      -4.744  -3.952   0.028  0.00  0.00     0.119 A 
ATOM      9  C14 <0> d   1      -5.286  -5.227   0.020  0.00  0.00     0.042 A 
ATOM     10  O1  <0> d   1      -5.558  -2.864   0.042  0.00  0.00    -0.191 OA
ATOM     11  C13 <0> d   1      -4.456  -6.332   0.012  0.00  0.00     0.022 A 
ATOM     12  C12 <0> d   1      -3.081  -6.173   0.005  0.00  0.00     0.012 A 
ATOM     13  C11 <0> d   1      -2.528  -4.907   0.007  0.00  0.00     0.036 A 
ATOM     14 Br1  <0> d   1      -1.956  -7.693  -0.007  0.00  0.00    -0.051 Br
ENDBRANCH   3   7
BRANCH   1  15
ATOM     15  C6  <0> d   1       0.002  -0.004   0.002  0.00  0.00    -0.008 A 
ATOM     16  C1  <0> d   1      -0.017   1.391   0.010  0.00  0.00     0.015 A 
ATOM     17  C2  <0> d   1       1.170   2.094   0.002  0.00  0.00     0.024 A 
ATOM     18  C3  <0> d   1       2.378   1.418  -0.013  0.00  0.00     0.034 A 
ATOM     19  C4  <0> d   1       2.403   0.034  -0.022  0.00  0.00     0.024 A 
ATOM     20 Cl1  <0> d   1       3.868   2.310  -0.024  0.00  0.00    -0.084 Cl
ATOM     21  C5  <0> d   1       1.222  -0.680  -0.014  0.00  0.00     0.015 A 
ENDBRANCH   1  15
TORSDOF 2
