REMARK  4 active torsions:
REMARK  status: ('A' for Active; 'I' for Inactive)
REMARK    1  A    between atoms: O1_2  and  C2_3 
REMARK    2  A    between atoms: C5_6  and  C8_9 
REMARK    3  A    between atoms: C16_19  and  C17_20 
REMARK    4  A    between atoms: C17_20  and  N1_21 
ROOT
ATOM      1  C8  <0> d   1       4.879   1.326  -0.037  0.00  0.00     0.048 A 
ATOM      2  C9  <0> d   1       4.763  -0.026  -0.044  0.00  0.00     0.159 A 
ATOM      3  O2  <0> d   1       3.579  -0.646  -0.036  0.00  0.00    -0.320 OA
ATOM      4  C10 <0> d   1       2.401   0.009  -0.021  0.00  0.00     0.100 A 
ATOM      5  C11 <0> d   1       2.371   1.415  -0.013  0.00  0.00     0.050 A 
ATOM      6  C12 <0> d   1       3.653   2.142  -0.021  0.00  0.00     0.197 A 
ATOM      7  O3  <0> d   1       3.696   3.361  -0.014  0.00  0.00    -0.286 OA
ATOM      8  C13 <0> d   1       1.153   2.094   0.002  0.00  0.00     0.021 A 
ATOM      9  C14 <0> d   1      -0.017   1.389   0.010  0.00  0.00     0.041 A 
ATOM     10  C15 <0> d   1       0.002  -0.004   0.002  0.00  0.00     0.118 A 
ATOM     11  C16 <0> d   1       1.203  -0.693  -0.014  0.00  0.00     0.039 A 
ATOM     12  O4  <0> d   1      -1.168  -0.693   0.009  0.00  0.00    -0.191 OA
ENDROOT
BRANCH   1  13
ATOM     13  C5  <0> d   1       6.215   1.970  -0.046  0.00  0.00    -0.020 A 
ATOM     14  C4  <0> d   1       7.190   1.569   0.867  0.00  0.00     0.015 A 
ATOM     15  C3  <0> d   1       8.432   2.169   0.856  0.00  0.00     0.037 A 
ATOM     16  C2  <0> d   1       8.711   3.172  -0.062  0.00  0.00     0.068 A 
ATOM     17  C7  <0> d   1       7.743   3.573  -0.973  0.00  0.00     0.037 A 
ATOM     18  C6  <0> d   1       6.501   2.973  -0.970  0.00  0.00     0.015 A 
BRANCH  16  19
ATOM     19  O1  <0> d   1       9.936   3.761  -0.071  0.00  0.00    -0.356 OA
ATOM     20  C1  <0> d   1      10.156   4.786  -1.042  0.00  0.00     0.210 C 
ENDBRANCH  16  19
ENDBRANCH   1  13
BRANCH  11  21
ATOM     21  C17 <0> d   1       1.210  -2.200  -0.022  0.00  0.00     0.279 C 
BRANCH  21  22
ATOM     22  N1  <0> d   1       1.198  -2.682  -1.409  0.00  0.00    -0.067 N 
ATOM     23  C21 <0> d   1       1.444  -4.139  -1.466  0.00  0.00     0.235 C 
ATOM     24  C20 <0> d   1       2.244  -4.413  -2.753  0.00  0.00     0.029 C 
ATOM     25  C19 <0> d   1       2.459  -3.024  -3.397  0.00  0.00     0.029 C 
ATOM     26  C18 <0> d   1       2.289  -2.056  -2.200  0.00  0.00     0.235 C 
ATOM     27  H21 <0> d   1       0.206  -2.425  -1.808  0.00  0.00     0.280 HD
ENDBRANCH  21  22
ENDBRANCH  11  21
TORSDOF 4
