REMARK  4 active torsions:
REMARK  status: ('A' for Active; 'I' for Inactive)
REMARK    1  A    between atoms: N1_7  and  C7_8 
REMARK    2  A    between atoms: C7_8  and  C8_9 
REMARK    3  A    between atoms: C9_10  and  O3_30 
REMARK    4  A    between atoms: C15_17  and  C16_18 
ROOT
ATOM      1  C8  <0> d   1       1.275   2.216   2.441  0.00  0.00     0.036 A 
ATOM      2  C9  <0> d   1       2.461   1.796   1.861  0.00  0.00     0.076 A 
ATOM      3  C10 <0> d   1       3.588   2.613   1.883  0.00  0.00     0.038 A 
ATOM      4  C11 <0> d   1       3.538   3.837   2.490  0.00  0.00     0.021 A 
ATOM      5  C12 <0> d   1       2.353   4.271   3.082  0.00  0.00     0.051 A 
ATOM      6  C13 <0> d   1       1.208   3.457   3.060  0.00  0.00     0.101 A 
ATOM      7  O1  <0> d   1       0.205   4.100   3.695  0.00  0.00    -0.305 OA
ATOM      8  C14 <0> d   1       0.603   5.312   4.149  0.00  0.00     0.128 A 
ATOM      9  C15 <0> d   1      -0.173   6.201   4.829  0.00  0.00     0.055 C 
ATOM     10  C25 <0> d   1       1.966   5.499   3.799  0.00  0.00     0.218 A 
ATOM     11  O2  <0> d   1       2.667   6.468   4.039  0.00  0.00    -0.284 OA
ENDROOT
BRANCH   9  12
ATOM     12  C16 <0> d   1      -1.568   5.878   5.124  0.00  0.00    -0.005 A 
ATOM     13  C19 <0> d   1      -2.538   6.721   5.851  0.00  0.00     0.002 A 
ATOM     14  C18 <0> d   1      -3.737   5.992   5.880  0.00  0.00     0.045 A 
ATOM     15  C20 <0> d   1      -2.473   7.984   6.431  0.00  0.00     0.014 A 
ATOM     16  N2  <0> d   1      -3.517   4.793   5.232  0.00  0.00    -0.360 N 
ATOM     17  C23 <0> d   1      -4.853   6.541   6.505  0.00  0.00     0.030 A 
ATOM     18  C17 <0> d   1      -2.238   4.723   4.785  0.00  0.00     0.103 A 
ATOM     19  C24 <0> d   1      -4.523   3.744   5.053  0.00  0.00     0.156 C 
ATOM     20  C22 <0> d   1      -4.773   7.790   7.081  0.00  0.00     0.002 A 
ATOM     21  C21 <0> d   1      -3.589   8.511   7.045  0.00  0.00     0.001 A 
ENDBRANCH   9  12
BRANCH   1  22
ATOM     22  C7  <0> d   1       0.060   1.325   2.405  0.00  0.00     0.279 C 
BRANCH  22  23
ATOM     23  N1  <0> d   1      -0.723   1.612   1.195  0.00  0.00    -0.063 N 
ATOM     24  C2  <0> d   1      -2.017   0.920   1.230  0.00  0.00     0.184 C 
ATOM     25  C1  <0> d   1      -2.750   1.275   2.525  0.00  0.00     0.040 C 
ATOM     26  C3  <0> d   1      -2.862   1.356   0.030  0.00  0.00     0.033 C 
ATOM     27  C4  <0> d   1      -2.115   1.017  -1.263  0.00  0.00     0.004 C 
ATOM     28  C5  <0> d   1      -0.751   1.712  -1.252  0.00  0.00     0.028 C 
ATOM     29  C6  <0> d   1       0.033   1.266  -0.015  0.00  0.00     0.235 C 
ATOM     30  H26 <0> d   1      -0.921   2.694   1.168  0.00  0.00     0.280 HD
ENDBRANCH  22  23
ENDBRANCH   1  22
BRANCH   2  31
ATOM     31  O3  <0> d   1       2.523   0.580   1.261  0.00  0.00    -0.360 OA
ATOM     32  H27 <0> d   1       3.463   0.242   0.799  0.00  0.00     0.217 HD
ENDBRANCH   2  31
TORSDOF 4
