REMARK  5 active torsions:
REMARK  status: ('A' for Active; 'I' for Inactive)
REMARK    1  A    between atoms: C3_3  and  O4_22 
REMARK    2  A    between atoms: C9_10  and  C11_13 
REMARK    3  A    between atoms: C11_13  and  N1_14 
REMARK    4  A    between atoms: O4_22  and  C18_23 
REMARK    5  A    between atoms: C22_27  and  O5_29 
ROOT
ATOM      1  C1  <0> d   1      -6.350   1.469   3.032  0.00  0.00     0.080 C 
ATOM      2  C2  <0> d   1      -6.184   2.853   2.460  0.00  0.00     0.087 A 
ATOM      3  C3  <0> d   1      -6.712   3.897   3.131  0.00  0.00     0.156 A 
ATOM      4  C4  <0> d   1      -6.566   5.213   2.607  0.00  0.00     0.221 A 
ATOM      5  O1  <0> d   1      -7.030   6.181   3.187  0.00  0.00    -0.284 OA
ATOM      6  C5  <0> d   1      -5.833   5.357   1.338  0.00  0.00     0.052 A 
ATOM      7  C6  <0> d   1      -5.639   6.606   0.748  0.00  0.00     0.021 A 
ATOM      8  C7  <0> d   1      -4.953   6.700  -0.429  0.00  0.00     0.041 A 
ATOM      9  C8  <0> d   1      -4.447   5.556  -1.043  0.00  0.00     0.118 A 
ATOM     10  C9  <0> d   1      -4.631   4.309  -0.470  0.00  0.00     0.039 A 
ATOM     11  C10 <0> d   1      -5.330   4.196   0.724  0.00  0.00     0.101 A 
ATOM     12  O2  <0> d   1      -5.519   2.995   1.306  0.00  0.00    -0.311 OA
ATOM     13  O3  <0> d   1      -3.767   5.664  -2.213  0.00  0.00    -0.191 OA
ENDROOT
BRANCH   3  14
ATOM     14  O4  <0> d   1      -7.378   3.693   4.300  0.00  0.00    -0.304 OA
BRANCH  14  15
ATOM     15  C18 <0> d   1      -8.717   3.470   4.240  0.00  0.00     0.079 A 
ATOM     16  C23 <0> d   1      -9.438   3.258   5.406  0.00  0.00     0.074 A 
ATOM     17  C22 <0> d   1     -10.804   3.031   5.342  0.00  0.00     0.070 A 
ATOM     18  C21 <0> d   1     -11.447   3.016   4.112  0.00  0.00     0.037 A 
ATOM     19  C20 <0> d   1     -10.726   3.228   2.952  0.00  0.00     0.005 A 
ATOM     20  C19 <0> d   1      -9.366   3.460   3.013  0.00  0.00     0.037 A 
BRANCH  17  21
ATOM     21  O5  <0> d   1     -11.513   2.823   6.482  0.00  0.00    -0.356 OA
ATOM     22  C24 <0> d   1     -12.916   2.595   6.341  0.00  0.00     0.210 C 
ENDBRANCH  17  21
ENDBRANCH  14  15
ENDBRANCH   3  14
BRANCH  10  23
ATOM     23  C11 <0> d   1      -4.080   3.078  -1.143  0.00  0.00     0.279 C 
BRANCH  23  24
ATOM     24  N1  <0> d   1      -2.716   2.825  -0.660  0.00  0.00    -0.067 N 
ATOM     25  C17 <0> d   1      -2.623   3.045   0.717  0.00  0.00     0.235 C 
ATOM     26  C16 <0> d   1      -1.159   3.006   1.206  0.00  0.00     0.028 C 
ATOM     27  C15 <0> d   1      -0.710   1.571   1.295  0.00  0.00     0.002 C 
ATOM     28  C14 <0> d   1      -0.013   1.086   0.008  0.00  0.00     0.002 C 
ATOM     29  C13 <0> d   1      -0.733   1.583  -1.257  0.00  0.00     0.028 C 
ATOM     30  C12 <0> d   1      -2.232   1.506  -1.110  0.00  0.00     0.235 C 
ATOM     31  H27 <0> d   1      -2.017   3.578  -1.055  0.00  0.00     0.280 HD
ENDBRANCH  23  24
ENDBRANCH  10  23
TORSDOF 5
