REMARK  4 active torsions:
REMARK  status: ('A' for Active; 'I' for Inactive)
REMARK    1  A    between atoms: C6_6  and  C12_14 
REMARK    2  A    between atoms: C12_14  and  N1_15 
REMARK    3  A    between atoms: N2_18  and  C17_21 
REMARK    4  A    between atoms: C17_21  and  C18_22 
ROOT
ATOM      1  N1  <0> d   1      -0.646  -5.279  -1.745  0.00  0.00     0.096 N 
ATOM      2  C13 <0> d   1      -1.193  -6.239  -0.775  0.00  0.00     0.300 C 
ATOM      3  C14 <0> d   1      -2.639  -6.570  -1.150  0.00  0.00     0.265 C 
ATOM      4  N2  <0> d   1      -2.676  -7.141  -2.503  0.00  0.00    -0.064 N 
ATOM      5  C15 <0> d   1      -2.150  -6.162  -3.463  0.00  0.00     0.265 C 
ATOM      6  C16 <0> d   1      -0.700  -5.827  -3.108  0.00  0.00     0.300 C 
ATOM      7  H29 <0> d   1      -2.112  -7.976  -2.531  0.00  0.00     0.280 HD
ENDROOT
BRANCH   1   8
ATOM      8  C12 <0> d   1       0.725  -4.892  -1.387  0.00  0.00     0.312 C 
BRANCH   8   9
ATOM      9  C6  <0> d   1       0.706  -4.116  -0.095  0.00  0.00    -0.011 A 
ATOM     10  C5  <0> d   1       0.432  -2.676  -0.085  0.00  0.00     0.013 A 
ATOM     11  C4  <0> d   1       0.181  -1.981  -1.273  0.00  0.00    -0.048 A 
ATOM     12  C9  <0> d   1       0.424  -1.992   1.143  0.00  0.00     0.097 A 
ATOM     13  C3  <0> d   1      -0.071  -0.638  -1.232  0.00  0.00     0.015 A 
ATOM     14  C25 <0> d   1       0.187  -2.710  -2.592  0.00  0.00     0.049 C 
ATOM     15  C2  <0> d   1      -0.080   0.040  -0.021  0.00  0.00    -0.053 A 
ATOM     16  C1  <0> d   1      -0.359   1.521   0.002  0.00  0.00     0.049 C 
ATOM     17  C10 <0> d   1       0.171  -0.626   1.160  0.00  0.00    -0.021 A 
ATOM     18  C11 <0> d   1       0.164   0.125   2.467  0.00  0.00     0.052 C 
ATOM     19  O2  <0> d   1       0.667  -2.664   2.288  0.00  0.00    -0.274 OA
ATOM     20  C8  <0> d   1       0.919  -3.982   2.287  0.00  0.00     0.288 A 
ATOM     21  C7  <0> d   1       0.942  -4.731   1.091  0.00  0.00     0.092 A 
ATOM     22  O1  <0> d   1       1.133  -4.546   3.345  0.00  0.00    -0.260 OA
ENDBRANCH   8   9
ENDBRANCH   1   8
BRANCH   4  23
ATOM     23  C17 <0> d   1      -4.063  -7.475  -2.855  0.00  0.00     0.273 C 
BRANCH  23  24
ATOM     24  C18 <0> d   1      -4.088  -8.172  -4.191  0.00  0.00    -0.030 A 
ATOM     25  C23 <0> d   1      -3.983  -9.550  -4.252  0.00  0.00     0.048 A 
ATOM     26  C22 <0> d   1      -4.011 -10.193  -5.479  0.00  0.00     0.105 A 
ATOM     27  C21 <0> d   1      -4.133  -9.448  -6.649  0.00  0.00     0.105 A 
ATOM     28  O3  <0> d   1      -3.931 -11.515  -5.809  0.00  0.00    -0.323 OA
ATOM     29  C20 <0> d   1      -4.231  -8.068  -6.580  0.00  0.00     0.040 A 
ATOM     30  O4  <0> d   1      -4.130 -10.303  -7.713  0.00  0.00    -0.323 OA
ATOM     31  C19 <0> d   1      -4.209  -7.433  -5.352  0.00  0.00     0.012 A 
ATOM     32  C24 <0> d   1      -4.416 -11.602  -7.162  0.00  0.00     0.352 C 
ENDBRANCH  23  24
ENDBRANCH   4  23
TORSDOF 4
