REMARK  7 active torsions:
REMARK  status: ('A' for Active; 'I' for Inactive)
REMARK    1  A    between atoms: O1_2  and  C2_3 
REMARK    2  A    between atoms: C7_8  and  C8_9 
REMARK    3  A    between atoms: C8_9  and  C9_10 
REMARK    4  A    between atoms: C9_10  and  C10_13 
REMARK    5  A    between atoms: N1_11  and  O2_12 
REMARK    6  A    between atoms: C13_16  and  O4_20 
REMARK    7  A    between atoms: C15_18  and  O3_19 
ROOT
ATOM      1  C9  <0> d   1       0.521  -3.005   1.385  0.00  0.00     0.078 C 
ATOM      2  N1  <0> d   1      -0.187  -2.562   2.375  0.00  0.00    -0.140 NA
ENDROOT
BRANCH   1   3
ATOM      3  C8  <0> d   1       0.213  -2.557  -0.020  0.00  0.00     0.104 C 
BRANCH   3   4
ATOM      4  C7  <0> d   1      -0.953  -1.604  -0.000  0.00  0.00    -0.019 A 
ATOM      5  C2  <0> d   1      -0.742  -0.254   0.241  0.00  0.00     0.074 A 
ATOM      6  C3  <0> d   1      -1.818   0.623   0.253  0.00  0.00     0.037 A 
ATOM      7  C4  <0> d   1      -3.096   0.148   0.031  0.00  0.00     0.003 A 
ATOM      8  C5  <0> d   1      -3.304  -1.198  -0.204  0.00  0.00     0.001 A 
ATOM      9  C6  <0> d   1      -2.234  -2.074  -0.216  0.00  0.00     0.010 A 
BRANCH   5  10
ATOM     10  O1  <0> d   1       0.516   0.210   0.459  0.00  0.00    -0.355 OA
ATOM     11  C1  <0> d   1       0.658   1.611   0.700  0.00  0.00     0.210 C 
ENDBRANCH   5  10
ENDBRANCH   3   4
ENDBRANCH   1   3
BRANCH   1  12
ATOM     12  C10 <0> d   1       1.627  -3.946   1.634  0.00  0.00     0.024 A 
ATOM     13  C15 <0> d   1       2.950  -3.562   1.373  0.00  0.00     0.080 A 
ATOM     14  C14 <0> d   1       3.984  -4.450   1.615  0.00  0.00     0.074 A 
ATOM     15  C13 <0> d   1       3.709  -5.719   2.102  0.00  0.00     0.068 A 
ATOM     16  C12 <0> d   1       2.397  -6.104   2.356  0.00  0.00     0.037 A 
ATOM     17  C11 <0> d   1       1.361  -5.227   2.125  0.00  0.00     0.019 A 
BRANCH  13  18
ATOM     18  O3  <0> d   1       3.216  -2.321   0.890  0.00  0.00    -0.360 OA
ATOM     19  H14 <0> d   1       3.447  -1.675   1.572  0.00  0.00     0.217 HD
ENDBRANCH  13  18
BRANCH  15  20
ATOM     20  O4  <0> d   1       4.726  -6.589   2.333  0.00  0.00    -0.361 OA
ATOM     21  H15 <0> d   1       4.949  -7.144   1.573  0.00  0.00     0.217 HD
ENDBRANCH  15  20
ENDBRANCH   1  12
BRANCH   2  22
ATOM     22  O2  <0> d   1       0.172  -2.891   3.705  0.00  0.00    -0.266 OA
ATOM     23  H10 <0> d   1      -0.416  -2.515   4.375  0.00  0.00     0.247 HD
ENDBRANCH   2  22
TORSDOF 7
