REMARK  5 active torsions:
REMARK  status: ('A' for Active; 'I' for Inactive)
REMARK    1  A    between atoms: N2_5  and  C6_8 
REMARK    2  A    between atoms: C6_8  and  C7_9 
REMARK    3  A    between atoms: C8_10  and  O4_28 
REMARK    4  A    between atoms: C10_12  and  O3_26 
REMARK    5  A    between atoms: C13_16  and  C16_20 
ROOT
ATOM      1  C7  <0> d   1      -0.723   1.951   1.250  0.00  0.00     0.036 A 
ATOM      2  C8  <0> d   1      -2.092   2.169   1.228  0.00  0.00     0.079 A 
ATOM      3  C9  <0> d   1      -2.758   2.612   2.365  0.00  0.00     0.075 A 
ATOM      4  C10 <0> d   1      -2.056   2.851   3.532  0.00  0.00     0.087 A 
ATOM      5  C11 <0> d   1      -0.672   2.639   3.560  0.00  0.00     0.082 A 
ATOM      6  C12 <0> d   1      -0.002   2.185   2.410  0.00  0.00     0.103 A 
ATOM      7  O1  <0> d   1       1.332   1.982   2.447  0.00  0.00    -0.308 OA
ATOM      8  C13 <0> d   1       2.060   2.200   3.554  0.00  0.00     0.090 A 
ATOM      9  C14 <0> d   1       1.509   2.638   4.716  0.00  0.00     0.094 A 
ATOM     10  C15 <0> d   1       0.115   2.881   4.781  0.00  0.00     0.190 A 
ATOM     11  O2  <0> d   1      -0.413   3.275   5.808  0.00  0.00    -0.287 OA
ENDROOT
BRANCH   1  12
ATOM     12  C6  <0> d   1      -0.018   1.465   0.010  0.00  0.00     0.279 C 
BRANCH  12  13
ATOM     13  N2  <0> d   1       0.002  -0.004   0.002  0.00  0.00    -0.064 N 
ATOM     14  C3  <0> d   1       0.466  -0.517  -1.294  0.00  0.00     0.265 C 
ATOM     15  C2  <0> d   1       0.397  -2.046  -1.289  0.00  0.00     0.299 C 
ATOM     16  N1  <0> d   1       1.225  -2.568  -0.193  0.00  0.00     0.087 N 
ATOM     17  C1  <0> d   1       1.245  -4.037  -0.201  0.00  0.00     0.310 C 
ATOM     18  C5  <0> d   1       0.761  -2.054   1.104  0.00  0.00     0.299 C 
ATOM     19  C4  <0> d   1       0.830  -0.526   1.099  0.00  0.00     0.265 C 
ATOM     20  H25 <0> d   1      -1.028  -0.356   0.158  0.00  0.00     0.280 HD
ENDBRANCH  12  13
ENDBRANCH   1  12
BRANCH   2  21
ATOM     21  O4  <0> d   1      -2.791   1.942   0.086  0.00  0.00    -0.360 OA
ATOM     22  H24 <0> d   1      -3.877   2.113   0.062  0.00  0.00     0.217 HD
ENDBRANCH   2  21
BRANCH   4  23
ATOM     23  O3  <0> d   1      -2.703   3.290   4.642  0.00  0.00    -0.355 OA
ATOM     24  C22 <0> d   1      -4.114   3.483   4.536  0.00  0.00     0.210 C 
ENDBRANCH   4  23
BRANCH   8  25
ATOM     25  C16 <0> d   1       3.515   1.952   3.507  0.00  0.00    -0.002 A 
ATOM     26  C21 <0> d   1       4.112   1.501   2.328  0.00  0.00     0.014 A 
ATOM     27  C20 <0> d   1       5.471   1.273   2.290  0.00  0.00     0.001 A 
ATOM     28  C19 <0> d   1       6.244   1.488   3.418  0.00  0.00     0.000 A 
ATOM     29  C18 <0> d   1       5.659   1.935   4.590  0.00  0.00     0.001 A 
ATOM     30  C17 <0> d   1       4.301   2.174   4.640  0.00  0.00     0.014 A 
ENDBRANCH   8  25
TORSDOF 5
