REMARK  6 active torsions:
REMARK  status: ('A' for Active; 'I' for Inactive)
REMARK    1  A    between atoms: C3_3  and  C17_24 
REMARK    2  A    between atoms: C4_4  and  C5_8 
REMARK    3  A    between atoms: C8_11  and  O2_15 
REMARK    4  A    between atoms: O2_15  and  C11_16 
REMARK    5  A    between atoms: C11_16  and  C12_17 
REMARK    6  A    between atoms: C12_17  and  N3_18 
ROOT
ATOM      1  C5  <0> d   1       0.158  -2.343   2.497  0.00  0.00     0.032 A 
ATOM      2  C6  <0> d   1      -0.203  -2.265   3.840  0.00  0.00     0.019 A 
ATOM      3  C7  <0> d   1      -0.367  -3.418   4.578  0.00  0.00     0.038 A 
ATOM      4  C8  <0> d   1      -0.174  -4.659   3.986  0.00  0.00     0.071 A 
ATOM      5  C9  <0> d   1       0.186  -4.746   2.649  0.00  0.00     0.077 A 
ATOM      6  C10 <0> d   1       0.347  -3.593   1.899  0.00  0.00     0.122 A 
ATOM      7  O1  <0> d   1       0.694  -3.676   0.588  0.00  0.00    -0.191 OA
ENDROOT
BRANCH   1   8
ATOM      8  C4  <0> d   1       0.334  -1.105   1.701  0.00  0.00     0.103 A 
ATOM      9  C3  <0> d   1       1.055   0.049   2.100  0.00  0.00     0.029 A 
ATOM     10  C2  <0> d   1       0.973   0.955   1.085  0.00  0.00     0.037 A 
ATOM     11  C1  <0> d   1       1.593   2.328   1.069  0.00  0.00     0.070 C 
ATOM     12  N2  <0> d   1       0.235   0.405   0.099  0.00  0.00    -0.281 N 
ATOM     13  N1  <0> d   1      -0.150  -0.880   0.499  0.00  0.00    -0.173 NA
ATOM     14  H1  <0> d   1       0.010   0.828  -0.744  0.00  0.00     0.189 HD
BRANCH   9  15
ATOM     15  C17 <0> d   1       1.769   0.236   3.387  0.00  0.00    -0.022 A 
ATOM     16  C22 <0> d   1       1.310   1.172   4.312  0.00  0.00     0.012 A 
ATOM     17  C21 <0> d   1       1.974   1.337   5.511  0.00  0.00     0.001 A 
ATOM     18  C20 <0> d   1       3.101   0.585   5.789  0.00  0.00     0.000 A 
ATOM     19  C19 <0> d   1       3.565  -0.341   4.872  0.00  0.00     0.001 A 
ATOM     20  C18 <0> d   1       2.905  -0.519   3.673  0.00  0.00     0.012 A 
ENDBRANCH   9  15
ENDBRANCH   1   8
BRANCH   4  21
ATOM     21  O2  <0> d   1      -0.336  -5.792   4.718  0.00  0.00    -0.349 OA
BRANCH  21  22
ATOM     22  C11 <0> d   1      -0.122  -7.035   4.047  0.00  0.00     0.206 C 
BRANCH  22  23
ATOM     23  C12 <0> d   1      -0.349  -8.189   5.025  0.00  0.00     0.299 C 
BRANCH  23  24
ATOM     24  N3  <0> d   1      -1.757  -8.205   5.445  0.00  0.00     0.094 N 
ATOM     25  C16 <0> d   1      -2.617  -8.748   4.384  0.00  0.00     0.298 C 
ATOM     26  C15 <0> d   1      -4.078  -8.691   4.840  0.00  0.00     0.198 C 
ATOM     27  O3  <0> d   1      -4.217  -9.407   6.070  0.00  0.00    -0.388 OA
ATOM     28  C14 <0> d   1      -3.393  -8.904   7.125  0.00  0.00     0.198 C 
ATOM     29  C13 <0> d   1      -1.926  -8.964   6.693  0.00  0.00     0.298 C 
ENDBRANCH  23  24
ENDBRANCH  22  23
ENDBRANCH  21  22
ENDBRANCH   4  21
TORSDOF 6
