REMARK  5 active torsions:
REMARK  status: ('A' for Active; 'I' for Inactive)
REMARK    1  A    between atoms: C4_4  and  C7_7 
REMARK    2  A    between atoms: C7_7  and  C8_8 
REMARK    3  A    between atoms: C7_7  and  N1_14 
REMARK    4  A    between atoms: N2_17  and  C18_20 
REMARK    5  A    between atoms: C18_20  and  C19_21 
ROOT
ATOM      1  N1  <0> d   1      -0.806   3.062  -1.200  0.00  0.00    -0.055 N 
ATOM      2  C14 <0> d   1      -0.754   1.593  -1.231  0.00  0.00     0.266 C 
ATOM      3  C15 <0> d   1      -0.013   1.086   0.008  0.00  0.00     0.300 C 
ATOM      4  N2  <0> d   1      -0.701   1.560   1.216  0.00  0.00     0.096 N 
ATOM      5  C16 <0> d   1      -0.754   3.029   1.247  0.00  0.00     0.300 C 
ATOM      6  C17 <0> d   1      -1.495   3.536   0.008  0.00  0.00     0.266 C 
ATOM      7  H26 <0> d   1       0.227   3.438  -1.172  0.00  0.00     0.281 HD
ENDROOT
BRANCH   1   8
ATOM      8  C7  <0> d   1      -1.445   3.591  -2.413  0.00  0.00     0.254 C 
BRANCH   8   9
ATOM      9  C4  <0> d   1      -1.480   5.096  -2.345  0.00  0.00    -0.023 A 
ATOM     10  C3  <0> d   1      -2.598   5.782  -2.785  0.00  0.00     0.009 A 
ATOM     11  C2  <0> d   1      -2.630   7.162  -2.722  0.00  0.00     0.001 A 
ATOM     12  C1  <0> d   1      -1.545   7.857  -2.221  0.00  0.00     0.000 A 
ATOM     13  C6  <0> d   1      -0.428   7.172  -1.782  0.00  0.00     0.001 A 
ATOM     14  C5  <0> d   1      -0.398   5.791  -1.839  0.00  0.00     0.009 A 
ENDBRANCH   8   9
BRANCH   8  15
ATOM     15  C8  <0> d   1      -0.658   3.161  -3.624  0.00  0.00    -0.023 A 
ATOM     16  C13 <0> d   1      -1.317   2.770  -4.774  0.00  0.00     0.009 A 
ATOM     17  C12 <0> d   1      -0.595   2.376  -5.885  0.00  0.00     0.001 A 
ATOM     18  C11 <0> d   1       0.786   2.372  -5.846  0.00  0.00     0.000 A 
ATOM     19  C10 <0> d   1       1.446   2.764  -4.696  0.00  0.00     0.001 A 
ATOM     20  C9  <0> d   1       0.724   3.163  -3.587  0.00  0.00     0.009 A 
ENDBRANCH   8  15
ENDBRANCH   1   8
BRANCH   4  21
ATOM     21  C18 <0> d   1      -0.062   1.031   2.429  0.00  0.00     0.312 C 
BRANCH  21  22
ATOM     22  C19 <0> d   1      -0.631   1.724   3.640  0.00  0.00    -0.011 A 
ATOM     23  C23 <0> d   1      -1.925   1.321   4.200  0.00  0.00     0.008 A 
ATOM     24  C22 <0> d   1      -2.418   1.994   5.331  0.00  0.00     0.090 A 
ATOM     25  C24 <0> d   1      -2.666   0.282   3.627  0.00  0.00     0.038 A 
ATOM     26  O2  <0> d   1      -1.699   2.996   5.883  0.00  0.00    -0.275 OA
ATOM     27  C27 <0> d   1      -3.642   1.620   5.870  0.00  0.00     0.040 A 
ATOM     28  C21 <0> d   1      -0.515   3.370   5.376  0.00  0.00     0.288 A 
ATOM     29  C20 <0> d   1       0.042   2.734   4.245  0.00  0.00     0.092 A 
ATOM     30  O1  <0> d   1       0.097   4.279   5.907  0.00  0.00    -0.260 OA
ATOM     31  C26 <0> d   1      -4.363   0.595   5.295  0.00  0.00     0.026 A 
ATOM     32  C25 <0> d   1      -3.878  -0.072   4.178  0.00  0.00     0.035 A 
ATOM     33 Cl1  <0> d   1      -4.804  -1.360   3.471  0.00  0.00    -0.084 Cl
ENDBRANCH  21  22
ENDBRANCH   4  21
TORSDOF 5
