REMARK  5 active torsions:
REMARK  status: ('A' for Active; 'I' for Inactive)
REMARK    1  A    between atoms: C9_10  and  C10_11 
REMARK    2  A    between atoms: C13_14  and  O3_19 
REMARK    3  A    between atoms: C14_15  and  O2_17 
REMARK    4  A    between atoms: N1_24  and  C21_27 
REMARK    5  A    between atoms: C21_27  and  C22_28 
ROOT
ATOM      1  C1  <0> d   1       1.838  -5.214  -0.253  0.00  0.00     0.054 C 
ATOM      2  C2  <0> d   1       0.338  -5.341  -0.312  0.00  0.00     0.007 A 
ATOM      3  C3  <0> d   1      -0.246  -6.595  -0.434  0.00  0.00     0.087 A 
ATOM      4  C4  <0> d   1      -1.630  -6.724  -0.488  0.00  0.00     0.005 A 
ATOM      5  C5  <0> d   1      -2.426  -5.613  -0.423  0.00  0.00     0.030 A 
ATOM      6  C6  <0> d   1      -1.852  -4.348  -0.302  0.00  0.00     0.052 A 
ATOM      7  C7  <0> d   1      -0.456  -4.204  -0.244  0.00  0.00     0.099 A 
ATOM      8  O1  <0> d   1      -0.138  -2.897  -0.127  0.00  0.00    -0.305 OA
ATOM      9  C8  <0> d   1      -1.240  -2.111  -0.099  0.00  0.00     0.127 A 
ATOM     10  C9  <0> d   1      -1.258  -0.757   0.011  0.00  0.00     0.053 C 
ATOM     11  C18 <0> d   1      -2.414  -2.989  -0.204  0.00  0.00     0.218 A 
ATOM     12  O4  <0> d   1      -3.590  -2.665  -0.210  0.00  0.00    -0.284 OA
ATOM     13  C19 <0> d   1      -2.273  -8.082  -0.614  0.00  0.00     0.317 C 
ATOM     14  N1  <0> d   1      -1.276  -9.058  -1.075  0.00  0.00     0.120 N 
ATOM     15  C20 <0> d   1      -0.054  -8.960  -0.260  0.00  0.00     0.448 C 
ATOM     16  O5  <0> d   1       0.555  -7.690  -0.502  0.00  0.00    -0.320 OA
ENDROOT
BRANCH  10  17
ATOM     17  C10 <0> d   1       0.002  -0.004  -0.003  0.00  0.00    -0.031 A 
ATOM     18  C15 <0> d   1      -0.018   1.397  -0.019  0.00  0.00     0.051 A 
ATOM     19  C14 <0> d   1       1.170   2.100  -0.031  0.00  0.00     0.102 A 
ATOM     20  C13 <0> d   1       2.386   1.416  -0.027  0.00  0.00     0.101 A 
ATOM     21  C12 <0> d   1       2.407   0.028  -0.011  0.00  0.00     0.040 A 
ATOM     22  C11 <0> d   1       1.227  -0.682   0.001  0.00  0.00     0.014 A 
BRANCH  19  23
ATOM     23  O2  <0> d   1       1.155   3.460  -0.047  0.00  0.00    -0.353 OA
ATOM     24  C16 <0> d   1      -0.125   4.094  -0.051  0.00  0.00     0.210 C 
ENDBRANCH  19  23
BRANCH  20  25
ATOM     25  O3  <0> d   1       3.553   2.111  -0.039  0.00  0.00    -0.353 OA
ATOM     26  C17 <0> d   1       4.762   1.348  -0.034  0.00  0.00     0.210 C 
ENDBRANCH  20  25
ENDBRANCH  10  17
BRANCH  14  27
ATOM     27  C21 <0> d   1      -1.821 -10.422  -1.045  0.00  0.00     0.314 C 
BRANCH  27  28
ATOM     28  C22 <0> d   1      -2.294 -10.743   0.349  0.00  0.00    -0.027 A 
ATOM     29  C26 <0> d   1      -3.596 -10.469   0.737  0.00  0.00     0.028 A 
ATOM     30  C25 <0> d   1      -3.995 -10.778   2.024  0.00  0.00     0.116 A 
ATOM     31  N2  <0> d   1      -3.153 -11.327   2.877  0.00  0.00    -0.273 NA
ATOM     32  C24 <0> d   1      -1.907 -11.601   2.543  0.00  0.00     0.116 A 
ATOM     33  C23 <0> d   1      -1.439 -11.325   1.272  0.00  0.00     0.028 A 
ENDBRANCH  27  28
ENDBRANCH  14  27
TORSDOF 5
