REMARK  5 active torsions:
REMARK  status: ('A' for Active; 'I' for Inactive)
REMARK    1  A    between atoms: C2_2  and  C4_4 
REMARK    2  A    between atoms: C10_10  and  C13_15 
REMARK    3  A    between atoms: C13_15  and  N1_16 
REMARK    4  A    between atoms: N2_19  and  C18_22 
REMARK    5  A    between atoms: C18_22  and  C19_23 
ROOT
ATOM      1  C4  <0> d   1      -1.412  -0.526   0.013  0.00  0.00    -0.054 A 
ATOM      2  C5  <0> d   1      -2.258  -0.200   1.063  0.00  0.00     0.010 A 
ATOM      3  C6  <0> d   1      -3.555  -0.666   1.092  0.00  0.00     0.039 A 
ATOM      4  C7  <0> d   1      -4.023  -1.471   0.060  0.00  0.00     0.090 A 
ATOM      5  C8  <0> d   1      -3.163  -1.799  -1.002  0.00  0.00     0.007 A 
ATOM      6  C9  <0> d   1      -1.852  -1.312  -1.015  0.00  0.00     0.022 A 
ATOM      7  C10 <0> d   1      -3.664  -2.649  -2.086  0.00  0.00    -0.011 A 
ATOM      8  C11 <0> d   1      -4.948  -3.085  -2.017  0.00  0.00     0.092 A 
ATOM      9  C12 <0> d   1      -5.756  -2.716  -0.920  0.00  0.00     0.288 A 
ATOM     10  O1  <0> d   1      -6.906  -3.115  -0.870  0.00  0.00    -0.260 OA
ATOM     11  O2  <0> d   1      -5.290  -1.939   0.069  0.00  0.00    -0.275 OA
ENDROOT
BRANCH   7  12
ATOM     12  C13 <0> d   1      -2.780  -3.027  -3.246  0.00  0.00     0.312 C 
BRANCH  12  13
ATOM     13  N1  <0> d   1      -2.821  -1.964  -4.260  0.00  0.00     0.096 N 
ATOM     14  C17 <0> d   1      -1.796  -2.180  -5.291  0.00  0.00     0.303 C 
ATOM     15  C16 <0> d   1      -1.819  -1.014  -6.282  0.00  0.00     0.303 C 
ATOM     16  N2  <0> d   1      -3.156  -0.912  -6.884  0.00  0.00     0.096 N 
ATOM     17  C15 <0> d   1      -4.180  -0.696  -5.853  0.00  0.00     0.303 C 
ATOM     18  C14 <0> d   1      -4.157  -1.862  -4.862  0.00  0.00     0.303 C 
BRANCH  16  19
ATOM     19  C18 <0> d   1      -3.197   0.151  -7.898  0.00  0.00     0.311 C 
BRANCH  19  20
ATOM     20  C19 <0> d   1      -2.312  -0.227  -9.057  0.00  0.00    -0.030 A 
ATOM     21  C24 <0> d   1      -2.833  -0.942 -10.120  0.00  0.00     0.009 A 
ATOM     22  C23 <0> d   1      -2.022  -1.285 -11.186  0.00  0.00     0.001 A 
ATOM     23  C22 <0> d   1      -0.689  -0.921 -11.185  0.00  0.00     0.000 A 
ATOM     24  C21 <0> d   1      -0.167  -0.210 -10.121  0.00  0.00     0.001 A 
ATOM     25  C20 <0> d   1      -0.978   0.136  -9.057  0.00  0.00     0.009 A 
ENDBRANCH  19  20
ENDBRANCH  16  19
ENDBRANCH  12  13
ENDBRANCH   7  12
BRANCH   1  26
ATOM     26  C2  <0> d   1       0.002  -0.004   0.002  0.00  0.00     0.010 C 
ATOM     27  C1  <0> d   1      -0.019   1.526   0.010  0.00  0.00     0.015 C 
ATOM     28  C3  <0> d   1       0.742  -0.511   1.242  0.00  0.00     0.015 C 
ENDBRANCH   1  26
TORSDOF 5
