REMARK  6 active torsions:
REMARK  status: ('A' for Active; 'I' for Inactive)
REMARK    1  A    between atoms: C4_4  and  O5_31 
REMARK    2  A    between atoms: C5_5  and  C19_23 
REMARK    3  A    between atoms: C10_11  and  C11_12 
REMARK    4  A    between atoms: C14_15  and  O3_20 
REMARK    5  A    between atoms: C15_16  and  O2_18 
REMARK    6  A    between atoms: C19_23  and  N1_24 
ROOT
ATOM      1  C1  <0> d   1       0.369   1.463  -0.008  0.00  0.00     0.049 C 
ATOM      2  C2  <0> d   1       0.059  -0.012  -0.001  0.00  0.00    -0.042 A 
ATOM      3  C3  <0> d   1      -0.163  -0.670  -1.178  0.00  0.00     0.045 A 
ATOM      4  C4  <0> d   1      -0.450  -2.032  -1.175  0.00  0.00     0.077 A 
ATOM      5  C5  <0> d   1      -0.513  -2.736   0.017  0.00  0.00     0.038 A 
ATOM      6  C6  <0> d   1      -0.290  -2.082   1.223  0.00  0.00     0.102 A 
ATOM      7  C7  <0> d   1       0.004  -0.709   1.206  0.00  0.00     0.057 A 
ATOM      8  C8  <0> d   1       0.196  -0.308   2.612  0.00  0.00     0.219 A 
ATOM      9  O1  <0> d   1       0.462   0.801   3.041  0.00  0.00    -0.284 OA
ATOM     10  C9  <0> d   1      -0.006  -1.546   3.379  0.00  0.00     0.128 A 
ATOM     11  C10 <0> d   1       0.069  -1.674   4.728  0.00  0.00     0.053 C 
ATOM     12  O4  <0> d   1      -0.295  -2.531   2.497  0.00  0.00    -0.305 OA
ENDROOT
BRANCH  11  13
ATOM     13  C11 <0> d   1      -0.018  -3.003   5.345  0.00  0.00    -0.031 A 
ATOM     14  C16 <0> d   1      -0.109  -3.127   6.737  0.00  0.00     0.051 A 
ATOM     15  C15 <0> d   1      -0.197  -4.380   7.311  0.00  0.00     0.102 A 
ATOM     16  C14 <0> d   1      -0.182  -5.518   6.506  0.00  0.00     0.101 A 
ATOM     17  C13 <0> d   1      -0.085  -5.397   5.126  0.00  0.00     0.040 A 
ATOM     18  C12 <0> d   1      -0.004  -4.152   4.544  0.00  0.00     0.014 A 
BRANCH  15  19
ATOM     19  O2  <0> d   1      -0.292  -4.504   8.662  0.00  0.00    -0.353 OA
ATOM     20  C17 <0> d   1      -0.302  -3.296   9.425  0.00  0.00     0.210 C 
ENDBRANCH  15  19
BRANCH  16  21
ATOM     21  O3  <0> d   1      -0.262  -6.750   7.074  0.00  0.00    -0.353 OA
ATOM     22  C18 <0> d   1      -0.241  -7.873   6.191  0.00  0.00     0.210 C 
ENDBRANCH  16  21
ENDBRANCH  11  13
BRANCH   5  23
ATOM     23  C19 <0> d   1      -0.826  -4.210   0.006  0.00  0.00     0.317 C 
BRANCH  23  24
ATOM     24  N1  <0> d   1       0.425  -4.975  -0.094  0.00  0.00     0.096 N 
ATOM     25  C23 <0> d   1       0.185  -6.407   0.130  0.00  0.00     0.303 C 
ATOM     26  C22 <0> d   1       1.520  -7.156   0.096  0.00  0.00     0.302 C 
ATOM     27  N2  <0> d   1       2.173  -6.930  -1.201  0.00  0.00     0.087 N 
ATOM     28  C21 <0> d   1       2.412  -5.498  -1.424  0.00  0.00     0.302 C 
ATOM     29  C24 <0> d   1       3.423  -7.695  -1.301  0.00  0.00     0.310 C 
ATOM     30  C20 <0> d   1       1.078  -4.749  -1.391  0.00  0.00     0.303 C 
ENDBRANCH  23  24
ENDBRANCH   5  23
BRANCH   4  31
ATOM     31  O5  <0> d   1      -0.669  -2.676  -2.349  0.00  0.00    -0.360 OA
ATOM     32  H28 <0> d   1       0.130  -3.045  -2.751  0.00  0.00     0.217 HD
ENDBRANCH   4  31
TORSDOF 6
