REMARK  8 active torsions:
REMARK  status: ('A' for Active; 'I' for Inactive)
REMARK    1  A    between atoms: C2_2  and  N1_3 
REMARK    2  A    between atoms: C4_5  and  C12_14 
REMARK    3  A    between atoms: C9_10  and  O1_12 
REMARK    4  A    between atoms: C18_21  and  O4_35 
REMARK    5  A    between atoms: C19_22  and  C21_25 
REMARK    6  A    between atoms: C21_25  and  N2_26 
REMARK    7  A    between atoms: N2_26  and  C23_28 
REMARK    8  A    between atoms: C23_28  and  C24_29 
ROOT
ATOM      1  C12 <0> d   1      -3.965  -1.904   2.280  0.00  0.00     0.055 C 
ATOM      2  C13 <0> d   1      -3.234  -0.756   2.347  0.00  0.00     0.128 A 
ATOM      3  C14 <0> d   1      -3.367   0.256   3.334  0.00  0.00     0.218 A 
ATOM      4  O2  <0> d   1      -4.142   0.275   4.276  0.00  0.00    -0.284 OA
ATOM      5  C15 <0> d   1      -2.367   1.278   2.977  0.00  0.00     0.051 A 
ATOM      6  C16 <0> d   1      -2.000   2.500   3.539  0.00  0.00     0.021 A 
ATOM      7  C17 <0> d   1      -1.009   3.243   2.963  0.00  0.00     0.038 A 
ATOM      8  C18 <0> d   1      -0.360   2.781   1.821  0.00  0.00     0.076 A 
ATOM      9  C19 <0> d   1      -0.718   1.572   1.248  0.00  0.00     0.035 A 
ATOM     10  C20 <0> d   1      -1.724   0.805   1.821  0.00  0.00     0.101 A 
ATOM     11  O3  <0> d   1      -2.258  -0.388   1.483  0.00  0.00    -0.305 OA
ENDROOT
BRANCH   1  12
ATOM     12  C4  <0> d   1      -3.722  -2.863   1.204  0.00  0.00    -0.005 A 
ATOM     13  C3  <0> d   1      -2.795  -2.751   0.190  0.00  0.00     0.103 A 
ATOM     14  N1  <0> d   1      -2.869  -3.841  -0.613  0.00  0.00    -0.356 N 
ATOM     15  C6  <0> d   1      -3.844  -4.710  -0.161  0.00  0.00     0.045 A 
ATOM     16  C5  <0> d   1      -4.416  -4.148   0.991  0.00  0.00     0.005 A 
ATOM     17  C7  <0> d   1      -4.302  -5.940  -0.621  0.00  0.00     0.033 A 
ATOM     18  C10 <0> d   1      -5.441  -4.813   1.659  0.00  0.00     0.051 A 
ATOM     19  C9  <0> d   1      -5.884  -6.035   1.188  0.00  0.00     0.069 A 
ATOM     20  C8  <0> d   1      -5.313  -6.594   0.049  0.00  0.00     0.039 A 
BRANCH  14  21
ATOM     21  C2  <0> d   1      -2.032  -4.066  -1.794  0.00  0.00     0.124 C 
ATOM     22  C1  <0> d   1      -2.773  -3.586  -3.043  0.00  0.00     0.027 C 
ENDBRANCH  14  21
BRANCH  19  23
ATOM     23  O1  <0> d   1      -6.881  -6.691   1.839  0.00  0.00    -0.356 OA
ATOM     24  C11 <0> d   1      -7.291  -7.949   1.298  0.00  0.00     0.210 C 
ENDBRANCH  19  23
ENDBRANCH   1  12
BRANCH   9  25
ATOM     25  C21 <0> d   1      -0.013   1.086   0.008  0.00  0.00     0.279 C 
BRANCH  25  26
ATOM     26  N2  <0> d   1      -0.723   1.572  -1.182  0.00  0.00    -0.067 N 
ATOM     27  C22 <0> d   1      -0.640   3.036  -1.283  0.00  0.00     0.270 C 
ATOM     28  H28 <0> d   1      -1.784   1.301  -1.077  0.00  0.00     0.280 HD
BRANCH  26  29
ATOM     29  C23 <0> d   1      -0.211   0.930  -2.400  0.00  0.00     0.273 C 
BRANCH  29  30
ATOM     30  C24 <0> d   1      -1.114   1.262  -3.560  0.00  0.00    -0.033 A 
ATOM     31  C29 <0> d   1      -0.870   2.385  -4.328  0.00  0.00     0.009 A 
ATOM     32  C28 <0> d   1      -1.699   2.689  -5.392  0.00  0.00     0.001 A 
ATOM     33  C27 <0> d   1      -2.771   1.868  -5.689  0.00  0.00     0.000 A 
ATOM     34  C26 <0> d   1      -3.015   0.745  -4.922  0.00  0.00     0.001 A 
ATOM     35  C25 <0> d   1      -2.184   0.439  -3.860  0.00  0.00     0.009 A 
ENDBRANCH  29  30
ENDBRANCH  26  29
ENDBRANCH  25  26
ENDBRANCH   9  25
BRANCH   8  36
ATOM     36  O4  <0> d   1       0.628   3.525   1.260  0.00  0.00    -0.360 OA
ATOM     37  H29 <0> d   1       1.144   3.164   0.358  0.00  0.00     0.217 HD
ENDBRANCH   8  36
TORSDOF 8
