REMARK  6 active torsions:
REMARK  status: ('A' for Active; 'I' for Inactive)
REMARK    1  A    between atoms: C4_4  and  C7_7 
REMARK    2  A    between atoms: C7_7  and  N1_8 
REMARK    3  A    between atoms: N2_11  and  C12_14 
REMARK    4  A    between atoms: C12_14  and  C13_15 
REMARK    5  A    between atoms: C20_24  and  O4_27 
REMARK    6  A    between atoms: C21_25  and  O3_26 
ROOT
ATOM      1  C13 <0> d   1       7.926  -1.641   4.759  0.00  0.00    -0.011 A 
ATOM      2  C14 <0> d   1       9.060  -0.897   4.832  0.00  0.00     0.092 A 
ATOM      3  C15 <0> d   1      10.319  -1.530   4.782  0.00  0.00     0.288 A 
ATOM      4  O1  <0> d   1      11.328  -0.851   4.848  0.00  0.00    -0.260 OA
ATOM      5  O2  <0> d   1      10.434  -2.862   4.664  0.00  0.00    -0.272 OA
ATOM      6  C16 <0> d   1       9.346  -3.659   4.587  0.00  0.00     0.126 A 
ATOM      7  C17 <0> d   1       8.058  -3.094   4.635  0.00  0.00     0.009 A 
ATOM      8  C18 <0> d   1       6.928  -3.917   4.561  0.00  0.00     0.018 A 
ATOM      9  C19 <0> d   1       7.078  -5.269   4.446  0.00  0.00     0.040 A 
ATOM     10  C20 <0> d   1       8.348  -5.838   4.402  0.00  0.00     0.101 A 
ATOM     11  C21 <0> d   1       9.482  -5.037   4.464  0.00  0.00     0.134 A 
ENDROOT
BRANCH   1  12
ATOM     12  C12 <0> d   1       6.568  -0.989   4.811  0.00  0.00     0.312 C 
BRANCH  12  13
ATOM     13  N2  <0> d   1       6.079  -0.768   3.443  0.00  0.00     0.096 N 
ATOM     14  C9  <0> d   1       4.874   0.074   3.445  0.00  0.00     0.300 C 
ATOM     15  C8  <0> d   1       4.432   0.329   2.002  0.00  0.00     0.265 C 
ATOM     16  N1  <0> d   1       4.153  -0.953   1.342  0.00  0.00    -0.064 N 
ATOM     17  C11 <0> d   1       5.372  -1.773   1.326  0.00  0.00     0.265 C 
ATOM     18  H23 <0> d   1       3.427  -1.440   1.845  0.00  0.00     0.280 HD
ATOM     19  C10 <0> d   1       5.822  -2.045   2.763  0.00  0.00     0.300 C 
BRANCH  16  20
ATOM     20  C7  <0> d   1       3.711  -0.707  -0.038  0.00  0.00     0.273 C 
BRANCH  20  21
ATOM     21  C4  <0> d   1       2.396   0.029  -0.020  0.00  0.00    -0.033 A 
ATOM     22  C3  <0> d   1       2.377   1.411  -0.013  0.00  0.00     0.009 A 
ATOM     23  C2  <0> d   1       1.171   2.086   0.002  0.00  0.00     0.001 A 
ATOM     24  C1  <0> d   1      -0.017   1.378   0.010  0.00  0.00     0.000 A 
ATOM     25  C6  <0> d   1       0.002  -0.004   0.002  0.00  0.00     0.001 A 
ATOM     26  C5  <0> d   1       1.208  -0.679  -0.012  0.00  0.00     0.009 A 
ENDBRANCH  20  21
ENDBRANCH  16  20
ENDBRANCH  12  13
ENDBRANCH   1  12
BRANCH  11  27
ATOM     27  O3  <0> d   1      10.719  -5.601   4.420  0.00  0.00    -0.356 OA
ATOM     28  H21 <0> d   1      11.072  -5.843   5.288  0.00  0.00     0.218 HD
ENDBRANCH  11  27
BRANCH  10  29
ATOM     29  O4  <0> d   1       8.480  -7.185   4.288  0.00  0.00    -0.358 OA
ATOM     30  H22 <0> d   1       8.521  -7.500   3.375  0.00  0.00     0.217 HD
ENDBRANCH  10  29
TORSDOF 6
