REMARK  7 active torsions:
REMARK  status: ('A' for Active; 'I' for Inactive)
REMARK    1  A    between atoms: C2_2  and  N1_3 
REMARK    2  A    between atoms: N2_6  and  C7_9 
REMARK    3  A    between atoms: C7_9  and  C8_10 
REMARK    4  A    between atoms: C9_11  and  O5_31 
REMARK    5  A    between atoms: C15_18  and  C16_19 
REMARK    6  A    between atoms: C19_22  and  O3_27 
REMARK    7  A    between atoms: C20_23  and  O2_25 
ROOT
ATOM      1  C8  <0> d   1      -1.170  10.376   1.313  0.00  0.00     0.038 A 
ATOM      2  C9  <0> d   1      -1.082  11.691   0.886  0.00  0.00     0.076 A 
ATOM      3  C10 <0> d   1      -0.479  12.002  -0.330  0.00  0.00     0.038 A 
ATOM      4  C11 <0> d   1       0.034  11.009  -1.116  0.00  0.00     0.021 A 
ATOM      5  C12 <0> d   1      -0.048   9.680  -0.699  0.00  0.00     0.051 A 
ATOM      6  C13 <0> d   1      -0.654   9.354   0.525  0.00  0.00     0.101 A 
ATOM      7  O1  <0> d   1      -0.614   8.017   0.711  0.00  0.00    -0.305 OA
ATOM      8  C14 <0> d   1      -0.011   7.383  -0.322  0.00  0.00     0.127 A 
ATOM      9  C15 <0> d   1       0.186   6.045  -0.437  0.00  0.00     0.053 C 
ATOM     10  C24 <0> d   1       0.399   8.408  -1.293  0.00  0.00     0.218 A 
ATOM     11  O4  <0> d   1       0.977   8.242  -2.353  0.00  0.00    -0.284 OA
ENDROOT
BRANCH   9  12
ATOM     12  C16 <0> d   1      -0.377   5.131   0.565  0.00  0.00    -0.031 A 
ATOM     13  C21 <0> d   1      -0.286   3.745   0.382  0.00  0.00     0.051 A 
ATOM     14  C20 <0> d   1      -0.819   2.892   1.327  0.00  0.00     0.102 A 
ATOM     15  C19 <0> d   1      -1.451   3.409   2.458  0.00  0.00     0.101 A 
ATOM     16  C18 <0> d   1      -1.537   4.783   2.643  0.00  0.00     0.040 A 
ATOM     17  C17 <0> d   1      -1.008   5.642   1.706  0.00  0.00     0.014 A 
BRANCH  14  18
ATOM     18  O2  <0> d   1      -0.732   1.546   1.153  0.00  0.00    -0.353 OA
ATOM     19  C22 <0> d   1      -0.077   1.085  -0.031  0.00  0.00     0.210 C 
ENDBRANCH  14  18
BRANCH  15  20
ATOM     20  O3  <0> d   1      -1.979   2.567   3.383  0.00  0.00    -0.353 OA
ATOM     21  C23 <0> d   1      -2.612   3.163   4.517  0.00  0.00     0.210 C 
ENDBRANCH  15  20
ENDBRANCH   9  12
BRANCH   1  22
ATOM     22  C7  <0> d   1      -1.825  10.054   2.631  0.00  0.00     0.317 C 
BRANCH  22  23
ATOM     23  N2  <0> d   1      -0.815  10.075   3.698  0.00  0.00     0.096 N 
ATOM     24  C4  <0> d   1      -1.446  10.001   5.023  0.00  0.00     0.300 C 
ATOM     25  C3  <0> d   1      -0.369  10.106   6.105  0.00  0.00     0.265 C 
ATOM     26  N1  <0> d   1       0.606   9.021   5.928  0.00  0.00    -0.068 N 
ATOM     27  C6  <0> d   1       1.238   9.095   4.603  0.00  0.00     0.265 C 
ATOM     28  H29 <0> d   1       0.066   8.065   5.995  0.00  0.00     0.280 HD
ATOM     29  C5  <0> d   1       0.160   8.990   3.521  0.00  0.00     0.300 C 
BRANCH  26  30
ATOM     30  C2  <0> d   1       1.616   9.042   6.995  0.00  0.00     0.230 C 
ATOM     31  C1  <0> d   1       2.745   8.070   6.647  0.00  0.00     0.034 C 
ENDBRANCH  26  30
ENDBRANCH  22  23
ENDBRANCH   1  22
BRANCH   2  32
ATOM     32  O5  <0> d   1      -1.588  12.685   1.660  0.00  0.00    -0.360 OA
ATOM     33  H28 <0> d   1      -1.521  13.731   1.325  0.00  0.00     0.217 HD
ENDBRANCH   2  32
TORSDOF 7
