REMARK  6 active torsions:
REMARK  status: ('A' for Active; 'I' for Inactive)
REMARK    1  A    between atoms: C3_3  and  O4_24 
REMARK    2  A    between atoms: N1_14  and  C13_17 
REMARK    3  A    between atoms: C13_17  and  C14_18 
REMARK    4  A    between atoms: O4_24  and  C19_25 
REMARK    5  A    between atoms: C22_28  and  C25_31 
REMARK    6  A    between atoms: C25_31  and  O6_33 
ROOT
ATOM      1  C1  <0> d   1      -0.019   1.482  -0.113  0.00  0.00     0.080 C 
ATOM      2  C2  <0> d   1      -0.005  -0.024  -0.060  0.00  0.00     0.087 A 
ATOM      3  C3  <0> d   1      -1.173  -0.676   0.104  0.00  0.00     0.156 A 
ATOM      4  C4  <0> d   1      -1.182  -2.099   0.156  0.00  0.00     0.221 A 
ATOM      5  O1  <0> d   1      -2.220  -2.723   0.303  0.00  0.00    -0.284 OA
ATOM      6  C5  <0> d   1       0.114  -2.786   0.023  0.00  0.00     0.052 A 
ATOM      7  C6  <0> d   1       0.208  -4.178   0.059  0.00  0.00     0.021 A 
ATOM      8  C7  <0> d   1       1.427  -4.776  -0.068  0.00  0.00     0.038 A 
ATOM      9  C8  <0> d   1       2.582  -4.008  -0.234  0.00  0.00     0.082 A 
ATOM     10  C9  <0> d   1       2.504  -2.628  -0.274  0.00  0.00     0.038 A 
ATOM     11  C10 <0> d   1       1.270  -2.003  -0.145  0.00  0.00     0.101 A 
ATOM     12  O2  <0> d   1       1.168  -0.659  -0.184  0.00  0.00    -0.311 OA
ATOM     13  C11 <0> d   1       3.742  -1.789  -0.461  0.00  0.00     0.320 C 
ATOM     14  N1  <0> d   1       4.934  -2.595  -0.165  0.00  0.00     0.121 N 
ATOM     15  C12 <0> d   1       4.868  -3.879  -0.882  0.00  0.00     0.448 C 
ATOM     16  O3  <0> d   1       3.779  -4.640  -0.354  0.00  0.00    -0.321 OA
ENDROOT
BRANCH   3  17
ATOM     17  O4  <0> d   1      -2.337   0.021   0.219  0.00  0.00    -0.304 OA
BRANCH  17  18
ATOM     18  C19 <0> d   1      -2.986  -0.016   1.410  0.00  0.00     0.076 A 
ATOM     19  C24 <0> d   1      -4.234   0.585   1.538  0.00  0.00     0.038 A 
ATOM     20  C23 <0> d   1      -4.898   0.545   2.743  0.00  0.00     0.020 A 
ATOM     21  C22 <0> d   1      -4.312  -0.091   3.841  0.00  0.00     0.039 A 
ATOM     22  C21 <0> d   1      -3.055  -0.689   3.710  0.00  0.00     0.020 A 
ATOM     23  C20 <0> d   1      -2.400  -0.649   2.500  0.00  0.00     0.038 A 
BRANCH  21  24
ATOM     24  C25 <0> d   1      -5.018  -0.132   5.135  0.00  0.00     0.292 C 
ATOM     25  O5  <0> d   1      -4.507  -0.685   6.089  0.00  0.00    -0.259 OA
BRANCH  24  26
ATOM     26  O6  <0> d   1      -6.229   0.446   5.261  0.00  0.00    -0.323 OA
ATOM     27  C26 <0> d   1      -6.855   0.368   6.543  0.00  0.00     0.213 C 
ENDBRANCH  24  26
ENDBRANCH  21  24
ENDBRANCH  17  18
ENDBRANCH   3  17
BRANCH  14  28
ATOM     28  C13 <0> d   1       6.162  -1.864  -0.506  0.00  0.00     0.332 C 
BRANCH  28  29
ATOM     29  C14 <0> d   1       7.356  -2.609   0.032  0.00  0.00     0.037 A 
ATOM     30  N2  <0> d   1       7.888  -3.586  -0.677  0.00  0.00    -0.368 N 
ATOM     31  C18 <0> d   1       8.937  -4.262  -0.249  0.00  0.00     0.088 A 
ATOM     32  H23 <0> d   1       7.500  -3.811  -1.537  0.00  0.00     0.165 HD
ATOM     33  C17 <0> d   1       9.512  -3.974   0.974  0.00  0.00     0.017 A 
ATOM     34  C16 <0> d   1       8.977  -2.957   1.750  0.00  0.00     0.003 A 
ATOM     35  C15 <0> d   1       7.878  -2.265   1.264  0.00  0.00     0.027 A 
ENDBRANCH  28  29
ENDBRANCH  14  28
TORSDOF 6
