REMARK  5 active torsions:
REMARK  status: ('A' for Active; 'I' for Inactive)
REMARK    1  A    between atoms: N2_5  and  C6_8 
REMARK    2  A    between atoms: C6_8  and  C7_9 
REMARK    3  A    between atoms: C8_10  and  O4_28 
REMARK    4  A    between atoms: C14_17  and  C15_18 
REMARK    5  A    between atoms: C18_21  and  O2_24 
ROOT
ATOM      1  C7  <0> d   1       2.238  -4.063   1.257  0.00  0.00     0.036 A 
ATOM      2  C8  <0> d   1       3.563  -4.393   1.019  0.00  0.00     0.076 A 
ATOM      3  C9  <0> d   1       4.279  -5.154   1.938  0.00  0.00     0.038 A 
ATOM      4  C10 <0> d   1       3.680  -5.585   3.088  0.00  0.00     0.021 A 
ATOM      5  C11 <0> d   1       2.347  -5.260   3.341  0.00  0.00     0.051 A 
ATOM      6  C12 <0> d   1       1.615  -4.488   2.424  0.00  0.00     0.101 A 
ATOM      7  O1  <0> d   1       0.360  -4.300   2.886  0.00  0.00    -0.305 OA
ATOM      8  C13 <0> d   1       0.171  -4.896   4.087  0.00  0.00     0.127 A 
ATOM      9  C14 <0> d   1      -0.976  -4.892   4.812  0.00  0.00     0.053 C 
ATOM     10  C22 <0> d   1       1.430  -5.561   4.455  0.00  0.00     0.218 A 
ATOM     11  O3  <0> d   1       1.666  -6.205   5.463  0.00  0.00    -0.284 OA
ENDROOT
BRANCH   1  12
ATOM     12  C6  <0> d   1       1.474  -3.239   0.253  0.00  0.00     0.279 C 
BRANCH  12  13
ATOM     13  N2  <0> d   1       1.635  -1.813   0.566  0.00  0.00    -0.064 N 
ATOM     14  C3  <0> d   1       0.992  -1.006  -0.479  0.00  0.00     0.265 C 
ATOM     15  C2  <0> d   1       1.176   0.480  -0.163  0.00  0.00     0.299 C 
ATOM     16  N1  <0> d   1       0.578   0.776   1.146  0.00  0.00     0.087 N 
ATOM     17  C1  <0> d   1       0.684   2.207   1.461  0.00  0.00     0.310 C 
ATOM     18  C5  <0> d   1       1.195  -0.042   2.199  0.00  0.00     0.299 C 
ATOM     19  C4  <0> d   1       1.011  -1.523   1.864  0.00  0.00     0.265 C 
ATOM     20  H25 <0> d   1       2.618  -1.587   0.608  0.00  0.00     0.280 HD
ENDBRANCH  12  13
ENDBRANCH   1  12
BRANCH   2  21
ATOM     21  O4  <0> d   1       4.167  -3.970  -0.121  0.00  0.00    -0.360 OA
ATOM     22  H24 <0> d   1       4.599  -3.109  -0.040  0.00  0.00     0.217 HD
ENDBRANCH   2  21
BRANCH   9  23
ATOM     23  C15 <0> d   1      -2.202  -4.317   4.245  0.00  0.00    -0.033 A 
ATOM     24  C20 <0> d   1      -3.341  -4.160   5.045  0.00  0.00     0.014 A 
ATOM     25  C19 <0> d   1      -4.485  -3.615   4.509  0.00  0.00     0.037 A 
ATOM     26  C18 <0> d   1      -4.516  -3.230   3.173  0.00  0.00     0.068 A 
ATOM     27  C17 <0> d   1      -3.389  -3.389   2.373  0.00  0.00     0.037 A 
ATOM     28  C16 <0> d   1      -2.238  -3.928   2.900  0.00  0.00     0.014 A 
BRANCH  26  29
ATOM     29  O2  <0> d   1      -5.649  -2.698   2.648  0.00  0.00    -0.356 OA
ATOM     30  C21 <0> d   1      -6.769  -2.564   3.525  0.00  0.00     0.210 C 
ENDBRANCH  26  29
ENDBRANCH   9  23
TORSDOF 5
