REMARK  9 active torsions:
REMARK  status: ('A' for Active; 'I' for Inactive)
REMARK    1  A    between atoms: C3_3  and  C24_32 
REMARK    2  A    between atoms: C4_4  and  C5_8 
REMARK    3  A    between atoms: C8_11  and  O2_15 
REMARK    4  A    between atoms: C10_13  and  O1_14 
REMARK    5  A    between atoms: O2_15  and  C11_16 
REMARK    6  A    between atoms: C11_16  and  C12_17 
REMARK    7  A    between atoms: C12_17  and  N3_18 
REMARK    8  A    between atoms: N4_21  and  C17_24 
REMARK    9  A    between atoms: C22_29  and  O3_30 
ROOT
ATOM      1  C5  <0> d   1      -1.027   2.710  -4.715  0.00  0.00     0.026 A 
ATOM      2  C6  <0> d   1      -1.278   4.031  -5.090  0.00  0.00     0.019 A 
ATOM      3  C7  <0> d   1      -1.142   4.410  -6.408  0.00  0.00     0.038 A 
ATOM      4  C8  <0> d   1      -0.755   3.480  -7.366  0.00  0.00     0.071 A 
ATOM      5  C9  <0> d   1      -0.503   2.166  -7.003  0.00  0.00     0.074 A 
ATOM      6  C10 <0> d   1      -0.631   1.776  -5.681  0.00  0.00     0.081 A 
ENDROOT
BRANCH   4   7
ATOM      7  O2  <0> d   1      -0.624   3.861  -8.664  0.00  0.00    -0.349 OA
BRANCH   7   8
ATOM      8  C11 <0> d   1      -0.899   5.229  -8.970  0.00  0.00     0.203 C 
BRANCH   8   9
ATOM      9  C12 <0> d   1      -0.699   5.467 -10.468  0.00  0.00     0.261 C 
BRANCH   9  10
ATOM     10  N3  <0> d   1      -1.692   4.692 -11.224  0.00  0.00    -0.066 N 
ATOM     11  C16 <0> d   1      -1.424   4.827 -12.661  0.00  0.00     0.254 C 
ATOM     12  C15 <0> d   1      -2.387   3.929 -13.445  0.00  0.00     0.150 C 
ATOM     13  N4  <0> d   1      -3.764   4.265 -13.050  0.00  0.00    -0.375 N 
ATOM     14  C14 <0> d   1      -4.080   4.314 -11.614  0.00  0.00     0.150 C 
ATOM     15  C13 <0> d   1      -3.037   5.194 -10.917  0.00  0.00     0.254 C 
ATOM     16  H33 <0> d   1      -1.630   3.720 -10.960  0.00  0.00     0.280 HD
BRANCH  13  17
ATOM     17  C17 <0> d   1      -4.744   4.530 -14.013  0.00  0.00     0.064 A 
ATOM     18  C22 <0> d   1      -5.525   3.493 -14.518  0.00  0.00     0.094 A 
ATOM     19  C21 <0> d   1      -6.498   3.761 -15.467  0.00  0.00     0.039 A 
ATOM     20  C20 <0> d   1      -6.684   5.054 -15.920  0.00  0.00     0.003 A 
ATOM     21  C19 <0> d   1      -5.906   6.083 -15.423  0.00  0.00     0.002 A 
ATOM     22  C18 <0> d   1      -4.937   5.825 -14.472  0.00  0.00     0.032 A 
BRANCH  18  23
ATOM     23  O3  <0> d   1      -5.337   2.220 -14.076  0.00  0.00    -0.354 OA
ATOM     24  C23 <0> d   1      -6.175   1.208 -14.638  0.00  0.00     0.210 C 
ENDBRANCH  18  23
ENDBRANCH  13  17
ENDBRANCH   9  10
ENDBRANCH   8   9
ENDBRANCH   7   8
ENDBRANCH   4   7
BRANCH   6  25
ATOM     25  O1  <0> d   1      -0.379   0.490  -5.322  0.00  0.00    -0.360 OA
ATOM     26  H8  <0> d   1      -1.152  -0.089  -5.365  0.00  0.00     0.217 HD
ENDBRANCH   6  25
BRANCH   1  27
ATOM     27  C4  <0> d   1      -1.172   2.300  -3.303  0.00  0.00     0.076 A 
ATOM     28  C3  <0> d   1      -0.156   1.868  -2.460  0.00  0.00     0.029 A 
ATOM     29  C2  <0> d   1      -0.742   1.585  -1.213  0.00  0.00     0.064 A 
ATOM     30  C1  <0> d   1      -0.013   1.086   0.008  0.00  0.00     0.073 C 
ATOM     31  N2  <0> d   1      -2.024   1.822  -1.292  0.00  0.00    -0.178 NA
ATOM     32  N1  <0> d   1      -2.327   2.276  -2.581  0.00  0.00    -0.276 N 
ATOM     33  H1  <0> d   1      -3.207   2.525  -2.904  0.00  0.00     0.189 HD
BRANCH  28  34
ATOM     34  C24 <0> d   1       1.278   1.732  -2.809  0.00  0.00    -0.022 A 
ATOM     35  C29 <0> d   1       1.879   0.474  -2.818  0.00  0.00     0.012 A 
ATOM     36  C28 <0> d   1       3.213   0.352  -3.150  0.00  0.00     0.001 A 
ATOM     37  C27 <0> d   1       3.956   1.476  -3.461  0.00  0.00     0.000 A 
ATOM     38  C26 <0> d   1       3.367   2.727  -3.448  0.00  0.00     0.001 A 
ATOM     39  C25 <0> d   1       2.032   2.861  -3.124  0.00  0.00     0.012 A 
ENDBRANCH  28  34
ENDBRANCH   1  27
TORSDOF 9
