REMARK  6 active torsions:
REMARK  status: ('A' for Active; 'I' for Inactive)
REMARK    1  A    between atoms: C5_5  and  C19_23 
REMARK    2  A    between atoms: C10_11  and  C11_12 
REMARK    3  A    between atoms: C15_16  and  O3_20 
REMARK    4  A    between atoms: C16_17  and  O2_18 
REMARK    5  A    between atoms: C19_23  and  N1_24 
REMARK    6  A    between atoms: N2_27  and  C24_30 
ROOT
ATOM      1  C1  <0> d   1       0.079   2.538   0.915  0.00  0.00     0.049 C 
ATOM      2  C2  <0> d   1       0.615   1.182   0.535  0.00  0.00    -0.042 A 
ATOM      3  C3  <0> d   1       1.154   0.982  -0.705  0.00  0.00     0.048 A 
ATOM      4  C4  <0> d   1       1.650  -0.269  -1.058  0.00  0.00     0.118 A 
ATOM      5  C5  <0> d   1       1.603  -1.325  -0.162  0.00  0.00     0.041 A 
ATOM      6  C6  <0> d   1       1.058  -1.139   1.102  0.00  0.00     0.102 A 
ATOM      7  C7  <0> d   1       0.567   0.130   1.449  0.00  0.00     0.057 A 
ATOM      8  C8  <0> d   1       0.068   0.018   2.832  0.00  0.00     0.219 A 
ATOM      9  O1  <0> d   1      -0.444   0.890   3.514  0.00  0.00    -0.284 OA
ATOM     10  C9  <0> d   1       0.327  -1.380   3.206  0.00  0.00     0.128 A 
ATOM     11  C10 <0> d   1       0.036  -1.958   4.399  0.00  0.00     0.055 C 
ATOM     12  O4  <0> d   1       0.898  -1.989   2.140  0.00  0.00    -0.305 OA
ATOM     13  O5  <0> d   1       2.183  -0.458  -2.292  0.00  0.00    -0.191 OA
ENDROOT
BRANCH   5  14
ATOM     14  C19 <0> d   1       2.143  -2.675  -0.559  0.00  0.00     0.317 C 
BRANCH  14  15
ATOM     15  N1  <0> d   1       3.566  -2.757  -0.203  0.00  0.00     0.096 N 
ATOM     16  C23 <0> d   1       4.069  -4.129  -0.354  0.00  0.00     0.292 C 
ATOM     17  C22 <0> d   1       5.497  -4.210   0.196  0.00  0.00     0.153 C 
ATOM     18  N2  <0> d   1       6.309  -3.175  -0.460  0.00  0.00    -0.377 N 
ATOM     19  C21 <0> d   1       5.802  -1.794  -0.469  0.00  0.00     0.153 C 
ATOM     20  C20 <0> d   1       4.362  -1.808  -0.993  0.00  0.00     0.292 C 
BRANCH  18  21
ATOM     21  C24 <0> d   1       7.531  -3.494  -1.058  0.00  0.00     0.031 A 
ATOM     22  C29 <0> d   1       8.221  -2.534  -1.786  0.00  0.00     0.053 A 
ATOM     23  C28 <0> d   1       9.432  -2.851  -2.372  0.00  0.00     0.036 A 
ATOM     24  C27 <0> d   1       9.951  -4.128  -2.242  0.00  0.00     0.024 A 
ATOM     25 Cl1  <0> d   1      10.300  -1.650  -3.276  0.00  0.00    -0.084 Cl
ATOM     26  C26 <0> d   1       9.262  -5.087  -1.522  0.00  0.00     0.004 A 
ATOM     27  C25 <0> d   1       8.055  -4.774  -0.930  0.00  0.00     0.029 A 
ENDBRANCH  18  21
ENDBRANCH  14  15
ENDBRANCH   5  14
BRANCH  11  28
ATOM     28  C11 <0> d   1       0.272  -3.393   4.596  0.00  0.00     0.003 A 
ATOM     29  C16 <0> d   1       0.198  -3.951   5.882  0.00  0.00     0.111 A 
ATOM     30  C15 <0> d   1       0.419  -5.313   6.054  0.00  0.00     0.102 A 
ATOM     31  C14 <0> d   1       0.721  -6.110   4.962  0.00  0.00     0.040 A 
ATOM     32  C13 <0> d   1       0.799  -5.559   3.692  0.00  0.00     0.004 A 
ATOM     33  C12 <0> d   1       0.579  -4.213   3.502  0.00  0.00     0.014 A 
BRANCH  29  34
ATOM     34  O2  <0> d   1      -0.092  -3.166   6.951  0.00  0.00    -0.352 OA
ATOM     35  C17 <0> d   1      -1.472  -3.018   7.292  0.00  0.00     0.210 C 
ENDBRANCH  29  34
BRANCH  30  36
ATOM     36  O3  <0> d   1       0.343  -5.862   7.296  0.00  0.00    -0.353 OA
ATOM     37  C18 <0> d   1       0.587  -7.266   7.400  0.00  0.00     0.210 C 
ENDBRANCH  30  36
ENDBRANCH  11  28
TORSDOF 6
