REMARK  9 active torsions:
REMARK  status: ('A' for Active; 'I' for Inactive)
REMARK    1  A    between atoms: C3_3  and  C17_24 
REMARK    2  A    between atoms: C4_4  and  C5_8 
REMARK    3  A    between atoms: C8_11  and  O2_15 
REMARK    4  A    between atoms: C10_13  and  O1_14 
REMARK    5  A    between atoms: O2_15  and  C11_16 
REMARK    6  A    between atoms: C11_16  and  C12_17 
REMARK    7  A    between atoms: C12_17  and  N3_18 
REMARK    8  A    between atoms: C20_27  and  O5_32 
REMARK    9  A    between atoms: C21_28  and  O4_30 
ROOT
ATOM      1  C1  <0> d   1       0.048  -0.313   1.526  0.00  0.00     0.070 C 
ATOM      2  C2  <0> d   1       0.628  -1.540   0.871  0.00  0.00     0.037 A 
ATOM      3  C3  <0> d   1       0.216  -2.094  -0.303  0.00  0.00     0.029 A 
ATOM      4  C4  <0> d   1       1.028  -3.229  -0.548  0.00  0.00     0.103 A 
ATOM      5  N1  <0> d   1       1.883  -3.334   0.446  0.00  0.00    -0.173 NA
ATOM      6  N2  <0> d   1       1.652  -2.283   1.341  0.00  0.00    -0.281 N 
ATOM      7  H1  <0> d   1       2.143  -2.118   2.162  0.00  0.00     0.189 HD
ENDROOT
BRANCH   4   8
ATOM      8  C5  <0> d   1       0.932  -4.137  -1.717  0.00  0.00     0.029 A 
ATOM      9  C10 <0> d   1       0.952  -5.523  -1.532  0.00  0.00     0.081 A 
ATOM     10  C9  <0> d   1       0.857  -6.365  -2.626  0.00  0.00     0.074 A 
ATOM     11  C8  <0> d   1       0.752  -5.834  -3.903  0.00  0.00     0.071 A 
ATOM     12  C7  <0> d   1       0.738  -4.457  -4.088  0.00  0.00     0.038 A 
ATOM     13  C6  <0> d   1       0.827  -3.611  -3.003  0.00  0.00     0.019 A 
BRANCH   9  14
ATOM     14  O1  <0> d   1       1.060  -6.041  -0.281  0.00  0.00    -0.360 OA
ATOM     15  H8  <0> d   1       0.211  -6.194   0.157  0.00  0.00     0.217 HD
ENDBRANCH   9  14
BRANCH  11  16
ATOM     16  O2  <0> d   1       0.664  -6.662  -4.976  0.00  0.00    -0.349 OA
BRANCH  16  17
ATOM     17  C11 <0> d   1       0.558  -6.049  -6.263  0.00  0.00     0.206 C 
BRANCH  17  18
ATOM     18  C12 <0> d   1       0.469  -7.133  -7.339  0.00  0.00     0.299 C 
BRANCH  18  19
ATOM     19  N3  <0> d   1      -0.772  -7.898  -7.162  0.00  0.00     0.094 N 
ATOM     20  C16 <0> d   1      -1.935  -7.133  -7.637  0.00  0.00     0.298 C 
ATOM     21  C15 <0> d   1      -3.210  -7.940  -7.379  0.00  0.00     0.198 C 
ATOM     22  O3  <0> d   1      -3.100  -9.213  -8.022  0.00  0.00    -0.388 OA
ATOM     23  C14 <0> d   1      -1.979  -9.985  -7.583  0.00  0.00     0.198 C 
ATOM     24  C13 <0> d   1      -0.692  -9.198  -7.843  0.00  0.00     0.298 C 
ENDBRANCH  18  19
ENDBRANCH  17  18
ENDBRANCH  16  17
ENDBRANCH  11  16
ENDBRANCH   4   8
BRANCH   3  25
ATOM     25  C17 <0> d   1      -0.884  -1.599  -1.168  0.00  0.00    -0.019 A 
ATOM     26  C22 <0> d   1      -0.757  -0.379  -1.829  0.00  0.00     0.052 A 
ATOM     27  C21 <0> d   1      -1.782   0.077  -2.639  0.00  0.00     0.102 A 
ATOM     28  C20 <0> d   1      -2.942  -0.679  -2.783  0.00  0.00     0.101 A 
ATOM     29  C19 <0> d   1      -3.070  -1.890  -2.121  0.00  0.00     0.040 A 
ATOM     30  C18 <0> d   1      -2.048  -2.351  -1.316  0.00  0.00     0.015 A 
BRANCH  27  31
ATOM     31  O4  <0> d   1      -1.659   1.265  -3.289  0.00  0.00    -0.353 OA
ATOM     32  C23 <0> d   1      -0.442   1.987  -3.095  0.00  0.00     0.210 C 
ENDBRANCH  27  31
BRANCH  28  33
ATOM     33  O5  <0> d   1      -3.952  -0.229  -3.576  0.00  0.00    -0.353 OA
ATOM     34  C24 <0> d   1      -5.113  -1.055  -3.679  0.00  0.00     0.210 C 
ENDBRANCH  28  33
ENDBRANCH   3  25
TORSDOF 9
