REMARK  3 active torsions:
REMARK  status: ('A' for Active; 'I' for Inactive)
REMARK    1  A    between atoms: C2_2  and  N1_3 
REMARK    2  A    between atoms: N2_6  and  C7_9 
REMARK    3  A    between atoms: C7_9  and  C8_10 
ROOT
ATOM      1  C8  <0> d   1      -5.005  -4.160  -0.465  0.00  0.00    -0.011 A 
ATOM      2  C9  <0> d   1      -3.878  -4.871  -0.206  0.00  0.00     0.092 A 
ATOM      3  C10 <0> d   1      -3.886  -6.276  -0.350  0.00  0.00     0.288 A 
ATOM      4  O1  <0> d   1      -2.869  -6.902  -0.115  0.00  0.00    -0.260 OA
ATOM      5  O2  <0> d   1      -4.987  -6.938  -0.737  0.00  0.00    -0.275 OA
ATOM      6  C11 <0> d   1      -6.140  -6.291  -1.010  0.00  0.00     0.091 A 
ATOM      7  C12 <0> d   1      -6.205  -4.892  -0.883  0.00  0.00     0.012 A 
ATOM      8  C13 <0> d   1      -7.399  -4.220  -1.160  0.00  0.00    -0.048 A 
ATOM      9  C14 <0> d   1      -8.508  -4.937  -1.550  0.00  0.00     0.014 A 
ATOM     10  C15 <0> d   1      -8.444  -6.317  -1.670  0.00  0.00    -0.059 A 
ATOM     11  C16 <0> d   1      -7.269  -6.993  -1.411  0.00  0.00     0.045 A 
ATOM     12  C17 <0> d   1      -9.667  -7.086  -2.099  0.00  0.00     0.048 C 
ATOM     13  C18 <0> d   1      -7.473  -2.721  -1.030  0.00  0.00     0.049 C 
ENDROOT
BRANCH   1  14
ATOM     14  C7  <0> d   1      -5.024  -2.660  -0.320  0.00  0.00     0.312 C 
BRANCH  14  15
ATOM     15  N2  <0> d   1      -3.655  -2.171  -0.111  0.00  0.00     0.096 N 
ATOM     16  C4  <0> d   1      -3.553  -0.740  -0.429  0.00  0.00     0.303 C 
ATOM     17  C3  <0> d   1      -2.099  -0.288  -0.275  0.00  0.00     0.302 C 
ATOM     18  N1  <0> d   1      -1.650  -0.552   1.099  0.00  0.00     0.091 N 
ATOM     19  C6  <0> d   1      -1.752  -1.984   1.417  0.00  0.00     0.302 C 
ATOM     20  C5  <0> d   1      -3.206  -2.435   1.264  0.00  0.00     0.303 C 
BRANCH  18  21
ATOM     21  C2  <0> d   1      -0.281  -0.063   1.308  0.00  0.00     0.268 C 
ATOM     22  C1  <0> d   1      -0.264   1.464   1.211  0.00  0.00     0.037 C 
ENDBRANCH  18  21
ENDBRANCH  14  15
ENDBRANCH   1  14
TORSDOF 3
