REMARK  2 active torsions:
REMARK  status: ('A' for Active; 'I' for Inactive)
REMARK    1  A    between atoms: C9_10  and  C10_11 
REMARK    2  A    between atoms: N1_21  and  C19_24 
ROOT
ATOM      1  C1  <0> d   1       0.488   4.426   0.759  0.00  0.00     0.054 C 
ATOM      2  C2  <0> d   1       1.570   3.501   0.266  0.00  0.00     0.007 A 
ATOM      3  C3  <0> d   1       2.892   3.927   0.254  0.00  0.00     0.087 A 
ATOM      4  C4  <0> d   1       3.899   3.081  -0.197  0.00  0.00     0.005 A 
ATOM      5  C5  <0> d   1       3.593   1.822  -0.636  0.00  0.00     0.030 A 
ATOM      6  C6  <0> d   1       2.269   1.383  -0.631  0.00  0.00     0.052 A 
ATOM      7  C7  <0> d   1       1.243   2.227  -0.177  0.00  0.00     0.099 A 
ATOM      8  O1  <0> d   1       0.056   1.589  -0.265  0.00  0.00    -0.305 OA
ATOM      9  C8  <0> d   1       0.193   0.336  -0.761  0.00  0.00     0.127 A 
ATOM     10  C9  <0> d   1      -0.807  -0.557  -0.971  0.00  0.00     0.053 C 
ATOM     11  C16 <0> d   1       1.623   0.119  -1.029  0.00  0.00     0.218 A 
ATOM     12  O2  <0> d   1       2.154  -0.881  -1.480  0.00  0.00    -0.284 OA
ATOM     13  C17 <0> d   1       5.338   3.533  -0.209  0.00  0.00     0.317 C 
ATOM     14  N1  <0> d   1       5.394   4.998  -0.105  0.00  0.00     0.121 N 
ATOM     15  C18 <0> d   1       4.548   5.460   1.007  0.00  0.00     0.448 C 
ATOM     16  O3  <0> d   1       3.183   5.181   0.689  0.00  0.00    -0.320 OA
ENDROOT
BRANCH  10  17
ATOM     17  C10 <0> d   1      -2.194  -0.194  -0.653  0.00  0.00    -0.033 A 
ATOM     18  C15 <0> d   1      -2.508   1.113  -0.263  0.00  0.00     0.014 A 
ATOM     19  C14 <0> d   1      -3.811   1.446   0.033  0.00  0.00     0.043 A 
ATOM     20  C13 <0> d   1      -4.812   0.490  -0.054  0.00  0.00     0.116 A 
ATOM     21  C12 <0> d   1      -4.508  -0.808  -0.439  0.00  0.00     0.043 A 
ATOM     22  F1  <0> d   1      -6.088   0.823   0.238  0.00  0.00    -0.206 F 
ATOM     23  C11 <0> d   1      -3.210  -1.153  -0.744  0.00  0.00     0.014 A 
ENDBRANCH  10  17
BRANCH  14  24
ATOM     24  C19 <0> d   1       6.779   5.462   0.059  0.00  0.00     0.240 C 
ATOM     25  C22 <0> d   1       7.638   4.987  -1.148  0.00  0.00     0.176 C 
ATOM     26  S1  <0> d   1       9.058   6.154  -1.030  0.00  0.00     0.146 S 
ATOM     27  C21 <0> d   1       8.268   7.499  -0.057  0.00  0.00     0.142 C 
ATOM     28  O4  <0> d   1      10.083   5.557  -0.247  0.00  0.00    -0.228 OA
ATOM     29  O5  <0> d   1       9.365   6.641  -2.329  0.00  0.00    -0.228 OA
ATOM     30  C20 <0> d   1       6.811   6.998   0.094  0.00  0.00     0.052 C 
ENDBRANCH  14  24
TORSDOF 2
