REMARK  8 active torsions:
REMARK  status: ('A' for Active; 'I' for Inactive)
REMARK    1  A    between atoms: C2_2  and  O1_3 
REMARK    2  A    between atoms: O1_3  and  C3_4 
REMARK       I    between atoms: C3_4  and  N1_6 
REMARK    3  A    between atoms: N2_9  and  C8_12 
REMARK    4  A    between atoms: C8_12  and  C9_13 
REMARK    5  A    between atoms: C10_14  and  O7_35 
REMARK    6  A    between atoms: C16_21  and  C17_22 
REMARK    7  A    between atoms: C21_26  and  O5_30 
REMARK    8  A    between atoms: C22_27  and  O4_28 
ROOT
ATOM      1  C9  <0> d   1       4.949  -5.129   4.787  0.00  0.00     0.036 A 
ATOM      2  C10 <0> d   1       5.069  -5.377   6.145  0.00  0.00     0.076 A 
ATOM      3  C11 <0> d   1       5.478  -6.626   6.603  0.00  0.00     0.045 A 
ATOM      4  C12 <0> d   1       5.766  -7.623   5.714  0.00  0.00    -0.042 A 
ATOM      5  C13 <0> d   1       5.650  -7.387   4.344  0.00  0.00     0.057 A 
ATOM      6  C14 <0> d   1       5.233  -6.133   3.870  0.00  0.00     0.101 A 
ATOM      7  O3  <0> d   1       5.189  -6.147   2.520  0.00  0.00    -0.305 OA
ATOM      8  C15 <0> d   1       5.551  -7.352   2.018  0.00  0.00     0.128 A 
ATOM      9  C16 <0> d   1       5.609  -7.688   0.703  0.00  0.00     0.055 C 
ATOM     10  C25 <0> d   1       5.880  -8.225   3.153  0.00  0.00     0.219 A 
ATOM     11  O6  <0> d   1       6.247  -9.387   3.118  0.00  0.00    -0.284 OA
ATOM     12  C26 <0> d   1       6.210  -8.974   6.212  0.00  0.00     0.049 C 
ENDROOT
BRANCH   1  13
ATOM     13  C8  <0> d   1       4.505  -3.771   4.305  0.00  0.00     0.279 C 
BRANCH  13  14
ATOM     14  N2  <0> d   1       3.040  -3.746   4.195  0.00  0.00    -0.064 N 
ATOM     15  C5  <0> d   1       2.601  -2.390   3.842  0.00  0.00     0.255 C 
ATOM     16  C4  <0> d   1       1.070  -2.335   3.839  0.00  0.00     0.156 C 
ATOM     17  N1  <0> d   1       0.567  -3.388   2.945  0.00  0.00    -0.325 N 
ATOM     18  C3  <0> d   1      -0.341  -3.110   1.988  0.00  0.00     0.362 C 
ATOM     19  C7  <0> d   1       1.077  -4.756   3.128  0.00  0.00     0.156 C 
ATOM     20  O2  <0> d   1      -0.749  -3.994   1.261  0.00  0.00    -0.238 OA
ATOM     21  C6  <0> d   1       2.612  -4.696   3.160  0.00  0.00     0.255 C 
ATOM     22  H31 <0> d   1       2.634  -4.010   5.081  0.00  0.00     0.280 HD
BRANCH  18  23
ATOM     23  O1  <0> d   1      -0.795  -1.852   1.837  0.00  0.00    -0.304 OA
BRANCH  23  24
ATOM     24  C2  <0> d   1      -1.756  -1.629   0.803  0.00  0.00     0.176 C 
ATOM     25  C1  <0> d   1      -2.151  -0.151   0.784  0.00  0.00     0.034 C 
ENDBRANCH  23  24
ENDBRANCH  18  23
ENDBRANCH  13  14
ENDBRANCH   1  13
BRANCH   2  26
ATOM     26  O7  <0> d   1       4.785  -4.393   7.036  0.00  0.00    -0.360 OA
ATOM     27  H30 <0> d   1       3.861  -4.374   7.320  0.00  0.00     0.217 HD
ENDBRANCH   2  26
BRANCH   9  28
ATOM     28  C17 <0> d   1       5.855  -9.081   0.313  0.00  0.00     0.003 A 
ATOM     29  C22 <0> d   1       6.723  -9.373  -0.750  0.00  0.00     0.111 A 
ATOM     30  C21 <0> d   1       6.952 -10.697  -1.107  0.00  0.00     0.102 A 
ATOM     31  C20 <0> d   1       6.316 -11.720  -0.422  0.00  0.00     0.040 A 
ATOM     32  C19 <0> d   1       5.453 -11.432   0.624  0.00  0.00     0.004 A 
ATOM     33  C18 <0> d   1       5.220 -10.127   0.995  0.00  0.00     0.014 A 
BRANCH  29  34
ATOM     34  O4  <0> d   1       7.341  -8.369  -1.423  0.00  0.00    -0.352 OA
ATOM     35  C23 <0> d   1       8.614  -7.945  -0.931  0.00  0.00     0.210 C 
ENDBRANCH  29  34
BRANCH  30  36
ATOM     36  O5  <0> d   1       7.796 -10.989  -2.132  0.00  0.00    -0.353 OA
ATOM     37  C24 <0> d   1       7.981 -12.371  -2.448  0.00  0.00     0.210 C 
ENDBRANCH  30  36
ENDBRANCH   9  28
TORSDOF 8
