REMARK  8 active torsions:
REMARK  status: ('A' for Active; 'I' for Inactive)
REMARK    1  A    between atoms: C5_5  and  C19_23 
REMARK    2  A    between atoms: C10_11  and  C11_12 
REMARK    3  A    between atoms: C14_15  and  C17_18 
REMARK    4  A    between atoms: C17_18  and  O3_20 
REMARK    5  A    between atoms: C19_23  and  N1_24 
REMARK    6  A    between atoms: N2_27  and  C24_30 
REMARK    7  A    between atoms: C24_30  and  C25_31 
REMARK    8  A    between atoms: C25_31  and  O5_32 
ROOT
ATOM      1  C1  <0> d   1       2.408   1.649   3.522  0.00  0.00     0.049 C 
ATOM      2  C2  <0> d   1       1.937   1.512   2.097  0.00  0.00    -0.042 A 
ATOM      3  C3  <0> d   1       0.686   1.028   1.834  0.00  0.00     0.048 A 
ATOM      4  C4  <0> d   1       0.251   0.896   0.518  0.00  0.00     0.118 A 
ATOM      5  C5  <0> d   1       1.072   1.263  -0.537  0.00  0.00     0.039 A 
ATOM      6  C6  <0> d   1       2.343   1.762  -0.286  0.00  0.00     0.102 A 
ATOM      7  C7  <0> d   1       2.774   1.886   1.045  0.00  0.00     0.057 A 
ATOM      8  C8  <0> d   1       4.141   2.434   0.991  0.00  0.00     0.219 A 
ATOM      9  O1  <0> d   1       4.878   2.695   1.925  0.00  0.00    -0.284 OA
ATOM     10  C9  <0> d   1       4.416   2.596  -0.449  0.00  0.00     0.128 A 
ATOM     11  C10 <0> d   1       5.560   3.074  -0.997  0.00  0.00     0.053 C 
ATOM     12  O4  <0> d   1       3.318   2.182  -1.122  0.00  0.00    -0.305 OA
ATOM     13  O6  <0> d   1      -0.991   0.409   0.266  0.00  0.00    -0.191 OA
ENDROOT
BRANCH   5  14
ATOM     14  C19 <0> d   1       0.585   1.120  -1.956  0.00  0.00     0.279 C 
BRANCH  14  15
ATOM     15  N1  <0> d   1      -0.087   2.359  -2.369  0.00  0.00    -0.064 N 
ATOM     16  C23 <0> d   1      -0.366   2.351  -3.812  0.00  0.00     0.265 C 
ATOM     17  C22 <0> d   1      -0.992   3.688  -4.216  0.00  0.00     0.300 C 
ATOM     18  N2  <0> d   1      -2.225   3.900  -3.446  0.00  0.00     0.093 N 
ATOM     19  C21 <0> d   1      -1.947   3.909  -2.003  0.00  0.00     0.300 C 
ATOM     20  C20 <0> d   1      -1.321   2.572  -1.599  0.00  0.00     0.265 C 
ATOM     21  H28 <0> d   1       0.593   3.198  -2.159  0.00  0.00     0.280 HD
BRANCH  18  22
ATOM     22  C24 <0> d   1      -2.897   5.139  -3.860  0.00  0.00     0.298 C 
BRANCH  22  23
ATOM     23  C25 <0> d   1      -3.607   4.913  -5.196  0.00  0.00     0.194 C 
BRANCH  23  24
ATOM     24  O5  <0> d   1      -4.633   3.932  -5.030  0.00  0.00    -0.399 OA
ATOM     25  H27 <0> d   1      -5.255   3.636  -5.888  0.00  0.00     0.209 HD
ENDBRANCH  23  24
ENDBRANCH  22  23
ENDBRANCH  18  22
ENDBRANCH  14  15
ENDBRANCH   5  14
BRANCH  11  26
ATOM     26  C11 <0> d   1       5.649   3.279  -2.450  0.00  0.00    -0.033 A 
ATOM     27  C16 <0> d   1       6.795   3.859  -3.007  0.00  0.00     0.012 A 
ATOM     28  C15 <0> d   1       6.876   4.050  -4.362  0.00  0.00     0.018 A 
ATOM     29  C14 <0> d   1       5.816   3.665  -5.188  0.00  0.00     0.039 A 
ATOM     30  C13 <0> d   1       4.671   3.086  -4.633  0.00  0.00     0.018 A 
ATOM     31  C12 <0> d   1       4.590   2.888  -3.279  0.00  0.00     0.012 A 
BRANCH  29  32
ATOM     32  C17 <0> d   1       5.905   3.872  -6.647  0.00  0.00     0.292 C 
ATOM     33  O2  <0> d   1       6.899   4.375  -7.130  0.00  0.00    -0.259 OA
BRANCH  32  34
ATOM     34  O3  <0> d   1       4.883   3.501  -7.444  0.00  0.00    -0.323 OA
ATOM     35  C18 <0> d   1       5.040   3.734  -8.868  0.00  0.00     0.213 C 
ENDBRANCH  32  34
ENDBRANCH  29  32
ENDBRANCH  11  26
TORSDOF 8
