REMARK  6 active torsions:
REMARK  status: ('A' for Active; 'I' for Inactive)
REMARK    1  A    between atoms: C7_8  and  C8_10 
REMARK    2  A    between atoms: C14_16  and  C17_21 
REMARK    3  A    between atoms: C17_21  and  N2_22 
REMARK    4  A    between atoms: N3_25  and  C22_28 
REMARK    5  A    between atoms: C22_28  and  C23_29 
REMARK    6  A    between atoms: C23_29  and  O3_30 
ROOT
ATOM      1  C8  <0> d   1      -2.858  -0.680   5.454  0.00  0.00     0.076 A 
ATOM      2  C9  <0> d   1      -2.458   0.531   5.987  0.00  0.00     0.034 A 
ATOM      3  C10 <0> d   1      -1.471   1.284   5.303  0.00  0.00    -0.000 A 
ATOM      4  C11 <0> d   1      -1.044   2.518   5.819  0.00  0.00     0.017 A 
ATOM      5  C12 <0> d   1      -0.094   3.240   5.159  0.00  0.00     0.041 A 
ATOM      6  C13 <0> d   1       0.463   2.756   3.976  0.00  0.00     0.118 A 
ATOM      7  C14 <0> d   1       0.050   1.544   3.449  0.00  0.00     0.039 A 
ATOM      8  C15 <0> d   1      -0.916   0.795   4.106  0.00  0.00     0.100 A 
ATOM      9  O1  <0> d   1      -1.312  -0.390   3.593  0.00  0.00    -0.273 OA
ATOM     10  C16 <0> d   1      -2.245  -1.140   4.203  0.00  0.00     0.301 A 
ATOM     11  O2  <0> d   1      -2.583  -2.203   3.716  0.00  0.00    -0.259 OA
ATOM     12  O4  <0> d   1       1.412   3.482   3.332  0.00  0.00    -0.191 OA
ENDROOT
BRANCH   7  13
ATOM     13  C17 <0> d   1       0.655   1.035   2.166  0.00  0.00     0.279 C 
BRANCH  13  14
ATOM     14  N2  <0> d   1      -0.139   1.513   1.026  0.00  0.00    -0.064 N 
ATOM     15  C21 <0> d   1      -0.443   2.945   1.160  0.00  0.00     0.265 C 
ATOM     16  C20 <0> d   1      -1.336   3.385  -0.002  0.00  0.00     0.300 C 
ATOM     17  N3  <0> d   1      -0.651   3.112  -1.273  0.00  0.00     0.093 N 
ATOM     18  C19 <0> d   1      -0.347   1.681  -1.407  0.00  0.00     0.300 C 
ATOM     19  C18 <0> d   1       0.545   1.240  -0.245  0.00  0.00     0.265 C 
ATOM     20  H23 <0> d   1      -1.091   0.963   1.025  0.00  0.00     0.280 HD
BRANCH  17  21
ATOM     21  C22 <0> d   1      -1.445   3.591  -2.413  0.00  0.00     0.298 C 
BRANCH  21  22
ATOM     22  C23 <0> d   1      -1.820   5.058  -2.193  0.00  0.00     0.194 C 
BRANCH  22  23
ATOM     23  O3  <0> d   1      -0.632   5.850  -2.138  0.00  0.00    -0.399 OA
ATOM     24  H22 <0> d   1      -0.702   6.937  -1.984  0.00  0.00     0.209 HD
ENDBRANCH  22  23
ENDBRANCH  21  22
ENDBRANCH  17  21
ENDBRANCH  13  14
ENDBRANCH   7  13
BRANCH   1  25
ATOM     25  C7  <0> d   1      -3.882  -1.497   6.131  0.00  0.00     0.115 A 
ATOM     26  N1  <0> d   1      -4.379  -2.662   5.774  0.00  0.00    -0.239 NA
ATOM     27  C5  <0> d   1      -5.320  -3.300   6.496  0.00  0.00     0.075 A 
ATOM     28  C4  <0> d   1      -5.746  -2.637   7.672  0.00  0.00     0.035 A 
ATOM     29  C6  <0> d   1      -5.934  -4.547   6.227  0.00  0.00     0.033 A 
ATOM     30  C3  <0> d   1      -6.698  -3.160   8.512  0.00  0.00     0.021 A 
ATOM     31  S1  <0> d   1      -4.760  -1.159   7.652  0.00  0.00    -0.067 SA
ATOM     32  C2  <0> d   1      -7.273  -4.381   8.211  0.00  0.00     0.002 A 
ATOM     33  C1  <0> d   1      -6.876  -5.056   7.065  0.00  0.00     0.002 A 
ENDBRANCH   1  25
TORSDOF 6
