REMARK  9 active torsions:
REMARK  status: ('A' for Active; 'I' for Inactive)
REMARK    1  A    between atoms: O1_2  and  C2_3 
REMARK    2  A    between atoms: C7_8  and  N1_9 
REMARK    3  A    between atoms: N2_12  and  C12_15 
REMARK    4  A    between atoms: C12_15  and  C13_16 
REMARK    5  A    between atoms: C13_16  and  O2_17 
REMARK    6  A    between atoms: O2_17  and  C14_18 
REMARK    7  A    between atoms: C17_21  and  C20_25 
REMARK    8  A    between atoms: C18_22  and  O3_24 
REMARK    9  A    between atoms: C21_26  and  C23_31 
ROOT
ATOM      1  C14 <0> d   1       4.879  -3.939  -3.558  0.00  0.00     0.071 A 
ATOM      2  C15 <0> d   1       5.622  -5.106  -3.426  0.00  0.00     0.038 A 
ATOM      3  C16 <0> d   1       6.141  -5.727  -4.541  0.00  0.00     0.019 A 
ATOM      4  C17 <0> d   1       5.920  -5.184  -5.808  0.00  0.00     0.026 A 
ATOM      5  C18 <0> d   1       5.170  -4.007  -5.939  0.00  0.00     0.081 A 
ATOM      6  C19 <0> d   1       4.649  -3.395  -4.813  0.00  0.00     0.074 A 
ENDROOT
BRANCH   1   7
ATOM      7  O2  <0> d   1       4.370  -3.332  -2.454  0.00  0.00    -0.349 OA
BRANCH   7   8
ATOM      8  C13 <0> d   1       4.644  -3.945  -1.192  0.00  0.00     0.203 C 
BRANCH   8   9
ATOM      9  C12 <0> d   1       3.995  -3.125  -0.075  0.00  0.00     0.261 C 
BRANCH   9  10
ATOM     10  N2  <0> d   1       2.535  -3.151  -0.234  0.00  0.00    -0.066 N 
ATOM     11  C9  <0> d   1       2.044  -4.517  -0.011  0.00  0.00     0.254 C 
ATOM     12  C8  <0> d   1       0.538  -4.570  -0.288  0.00  0.00     0.150 C 
ATOM     13  N1  <0> d   1      -0.123  -3.546   0.535  0.00  0.00    -0.375 N 
ATOM     14  C11 <0> d   1       0.406  -2.174   0.493  0.00  0.00     0.150 C 
ATOM     15  C10 <0> d   1       1.922  -2.236   0.737  0.00  0.00     0.254 C 
ATOM     16  H31 <0> d   1       2.295  -2.857  -1.169  0.00  0.00     0.280 HD
BRANCH  13  17
ATOM     17  C7  <0> d   1      -1.229  -3.866   1.331  0.00  0.00     0.064 A 
ATOM     18  C2  <0> d   1      -1.045  -4.282   2.647  0.00  0.00     0.094 A 
ATOM     19  C3  <0> d   1      -2.143  -4.592   3.432  0.00  0.00     0.039 A 
ATOM     20  C4  <0> d   1      -3.419  -4.494   2.907  0.00  0.00     0.003 A 
ATOM     21  C5  <0> d   1      -3.602  -4.087   1.599  0.00  0.00     0.002 A 
ATOM     22  C6  <0> d   1      -2.511  -3.775   0.809  0.00  0.00     0.032 A 
BRANCH  18  23
ATOM     23  O1  <0> d   1       0.210  -4.379   3.163  0.00  0.00    -0.354 OA
ATOM     24  C1  <0> d   1       0.323  -4.812   4.519  0.00  0.00     0.210 C 
ENDBRANCH  18  23
ENDBRANCH  13  17
ENDBRANCH   9  10
ENDBRANCH   8   9
ENDBRANCH   7   8
ENDBRANCH   1   7
BRANCH   5  25
ATOM     25  O3  <0> d   1       4.952  -3.472  -7.168  0.00  0.00    -0.360 OA
ATOM     26  H24 <0> d   1       4.150  -3.796  -7.601  0.00  0.00     0.217 HD
ENDBRANCH   5  25
BRANCH   4  27
ATOM     27  C20 <0> d   1       6.475  -5.846  -7.005  0.00  0.00     0.075 A 
ATOM     28  N4  <0> d   1       7.794  -5.976  -7.322  0.00  0.00    -0.277 N 
ATOM     29  N3  <0> d   1       7.883  -6.669  -8.535  0.00  0.00    -0.186 NA
ATOM     30  H1  <0> d   1       8.540  -5.647  -6.798  0.00  0.00     0.189 HD
ATOM     31  C22 <0> d   1       6.679  -6.949  -8.957  0.00  0.00     0.153 A 
ATOM     32  C21 <0> d   1       5.751  -6.451  -8.025  0.00  0.00     0.022 A 
BRANCH  32  33
ATOM     33  C23 <0> d   1       4.275  -6.551  -8.115  0.00  0.00    -0.022 A 
ATOM     34  C28 <0> d   1       3.608  -6.073  -9.242  0.00  0.00     0.012 A 
ATOM     35  C27 <0> d   1       2.234  -6.175  -9.323  0.00  0.00     0.001 A 
ATOM     36  C26 <0> d   1       1.518  -6.740  -8.283  0.00  0.00     0.000 A 
ATOM     37  C25 <0> d   1       2.173  -7.211  -7.160  0.00  0.00     0.001 A 
ATOM     38  C24 <0> d   1       3.547  -7.120  -7.071  0.00  0.00     0.012 A 
ENDBRANCH  32  33
ENDBRANCH   4  27
TORSDOF 9
