REMARK  5 active torsions:
REMARK  status: ('A' for Active; 'I' for Inactive)
REMARK    1  A    between atoms: C5_5  and  C17_20 
REMARK    2  A    between atoms: C10_11  and  C11_12 
REMARK    3  A    between atoms: C17_20  and  N1_21 
REMARK    4  A    between atoms: N2_24  and  C22_27 
REMARK    5  A    between atoms: C25_30  and  O3_33 
ROOT
ATOM      1  C1  <0> d   1      -0.194   1.098  -0.733  0.00  0.00     0.049 C 
ATOM      2  C2  <0> d   1      -0.086  -0.403  -0.654  0.00  0.00    -0.042 A 
ATOM      3  C3  <0> d   1      -0.095  -1.151  -1.797  0.00  0.00     0.048 A 
ATOM      4  C4  <0> d   1       0.004  -2.538  -1.726  0.00  0.00     0.118 A 
ATOM      5  C5  <0> d   1       0.112  -3.175  -0.501  0.00  0.00     0.039 A 
ATOM      6  C6  <0> d   1       0.122  -2.429   0.671  0.00  0.00     0.102 A 
ATOM      7  C7  <0> d   1       0.027  -1.030   0.587  0.00  0.00     0.057 A 
ATOM      8  C8  <0> d   1       0.071  -0.526   1.971  0.00  0.00     0.219 A 
ATOM      9  O1  <0> d   1       0.012   0.632   2.346  0.00  0.00    -0.284 OA
ATOM     10  C9  <0> d   1       0.201  -1.735   2.800  0.00  0.00     0.128 A 
ATOM     11  C10 <0> d   1       0.280  -1.774   4.154  0.00  0.00     0.053 C 
ATOM     12  O2  <0> d   1       0.216  -2.802   1.966  0.00  0.00    -0.305 OA
ATOM     13  O4  <0> d   1      -0.005  -3.272  -2.868  0.00  0.00    -0.191 OA
ENDROOT
BRANCH   5  14
ATOM     14  C17 <0> d   1       0.218  -4.677  -0.439  0.00  0.00     0.279 C 
BRANCH  14  15
ATOM     15  N1  <0> d   1       1.632  -5.071  -0.491  0.00  0.00    -0.064 N 
ATOM     16  C21 <0> d   1       1.729  -6.535  -0.552  0.00  0.00     0.255 C 
ATOM     17  C20 <0> d   1       3.196  -6.942  -0.722  0.00  0.00     0.150 C 
ATOM     18  N2  <0> d   1       3.980  -6.326   0.360  0.00  0.00    -0.378 N 
ATOM     19  C19 <0> d   1       3.818  -4.883   0.598  0.00  0.00     0.150 C 
ATOM     20  C18 <0> d   1       2.322  -4.573   0.706  0.00  0.00     0.255 C 
ATOM     21  H27 <0> d   1       2.061  -4.672  -1.313  0.00  0.00     0.280 HD
BRANCH  18  22
ATOM     22  C22 <0> d   1       4.853  -7.091   1.141  0.00  0.00     0.030 A 
ATOM     23  C27 <0> d   1       5.492  -6.517   2.233  0.00  0.00     0.032 A 
ATOM     24  C26 <0> d   1       6.350  -7.274   3.007  0.00  0.00     0.039 A 
ATOM     25  C25 <0> d   1       6.582  -8.604   2.687  0.00  0.00     0.068 A 
ATOM     26  C24 <0> d   1       5.949  -9.176   1.593  0.00  0.00     0.039 A 
ATOM     27  C23 <0> d   1       5.086  -8.422   0.822  0.00  0.00     0.032 A 
BRANCH  25  28
ATOM     28  O3  <0> d   1       7.431  -9.347   3.446  0.00  0.00    -0.356 OA
ATOM     29  C28 <0> d   1       8.049  -8.694   4.556  0.00  0.00     0.210 C 
ENDBRANCH  25  28
ENDBRANCH  18  22
ENDBRANCH  14  15
ENDBRANCH   5  14
BRANCH  11  30
ATOM     30  C11 <0> d   1       0.293  -3.067   4.851  0.00  0.00    -0.033 A 
ATOM     31  C16 <0> d   1       0.352  -4.260   4.121  0.00  0.00     0.014 A 
ATOM     32  C15 <0> d   1       0.370  -5.468   4.782  0.00  0.00     0.043 A 
ATOM     33  C14 <0> d   1       0.318  -5.505   6.168  0.00  0.00     0.116 A 
ATOM     34  C13 <0> d   1       0.254  -4.328   6.898  0.00  0.00     0.043 A 
ATOM     35  F1  <0> d   1       0.330  -6.694   6.809  0.00  0.00    -0.206 F 
ATOM     36  C12 <0> d   1       0.241  -3.112   6.250  0.00  0.00     0.014 A 
ENDBRANCH  11  30
TORSDOF 5
