REMARK  4 active torsions:
REMARK  status: ('A' for Active; 'I' for Inactive)
REMARK    1  A    between atoms: C6_6  and  C11_13 
REMARK    2  A    between atoms: C11_13  and  N1_14 
REMARK    3  A    between atoms: N2_17  and  C16_20 
REMARK    4  A    between atoms: C16_20  and  C17_21 
ROOT
ATOM      1  N1  <0> d   1       8.052  -2.652   0.030  0.00  0.00     0.096 N 
ATOM      2  C12 <0> d   1       8.359  -1.292   0.496  0.00  0.00     0.303 C 
ATOM      3  C13 <0> d   1       7.341  -0.879   1.561  0.00  0.00     0.303 C 
ATOM      4  N2  <0> d   1       5.987  -0.944   0.992  0.00  0.00     0.096 N 
ATOM      5  C14 <0> d   1       5.680  -2.304   0.526  0.00  0.00     0.303 C 
ATOM      6  C15 <0> d   1       6.699  -2.717  -0.539  0.00  0.00     0.303 C 
ENDROOT
BRANCH   1   7
ATOM      7  C11 <0> d   1       9.054  -3.114  -0.940  0.00  0.00     0.312 C 
BRANCH   7   8
ATOM      8  C6  <0> d   1       8.654  -4.468  -1.469  0.00  0.00    -0.011 A 
ATOM      9  C5  <0> d   1       8.798  -5.671  -0.645  0.00  0.00     0.006 A 
ATOM     10  C4  <0> d   1       9.299  -5.597   0.659  0.00  0.00     0.015 A 
ATOM     11  C9  <0> d   1       8.406  -6.912  -1.176  0.00  0.00     0.090 A 
ATOM     12  C3  <0> d   1       9.416  -6.736   1.406  0.00  0.00     0.007 A 
ATOM     13  C2  <0> d   1       9.035  -7.963   0.882  0.00  0.00    -0.059 A 
ATOM     14  C1  <0> d   1       9.171  -9.207   1.723  0.00  0.00     0.048 C 
ATOM     15  C10 <0> d   1       8.533  -8.057  -0.399  0.00  0.00     0.045 A 
ATOM     16  O2  <0> d   1       7.916  -6.981  -2.432  0.00  0.00    -0.275 OA
ATOM     17  C8  <0> d   1       7.787  -5.885  -3.195  0.00  0.00     0.288 A 
ATOM     18  C7  <0> d   1       8.155  -4.606  -2.724  0.00  0.00     0.092 A 
ATOM     19  O1  <0> d   1       7.341  -5.996  -4.323  0.00  0.00    -0.260 OA
ENDBRANCH   7   8
ENDBRANCH   1   7
BRANCH   4  20
ATOM     20  C16 <0> d   1       4.986  -0.482   1.962  0.00  0.00     0.311 C 
BRANCH  20  21
ATOM     21  C17 <0> d   1       3.654  -0.329   1.274  0.00  0.00    -0.027 A 
ATOM     22  C22 <0> d   1       3.311   0.878   0.694  0.00  0.00     0.048 A 
ATOM     23  C21 <0> d   1       2.087   1.020   0.060  0.00  0.00     0.105 A 
ATOM     24  C20 <0> d   1       1.204  -0.055   0.011  0.00  0.00     0.105 A 
ATOM     25  O3  <0> d   1       1.518   2.083  -0.579  0.00  0.00    -0.323 OA
ATOM     26  C19 <0> d   1       1.553  -1.261   0.595  0.00  0.00     0.040 A 
ATOM     27  O4  <0> d   1       0.080   0.334  -0.660  0.00  0.00    -0.323 OA
ATOM     28  C18 <0> d   1       2.776  -1.396   1.225  0.00  0.00     0.012 A 
ATOM     29  C23 <0> d   1       0.114   1.774  -0.664  0.00  0.00     0.352 C 
ENDBRANCH  20  21
ENDBRANCH   4  20
TORSDOF 4
