REMARK  4 active torsions:
REMARK  status: ('A' for Active; 'I' for Inactive)
REMARK    1  A    between atoms: N2_5  and  C6_8 
REMARK    2  A    between atoms: C6_8  and  C7_9 
REMARK    3  A    between atoms: C8_10  and  O3_27 
REMARK    4  A    between atoms: C14_17  and  C15_18 
ROOT
ATOM      1  C7  <0> d   1       2.321  -4.041   1.197  0.00  0.00     0.038 A 
ATOM      2  C8  <0> d   1       3.642  -4.320   0.886  0.00  0.00     0.076 A 
ATOM      3  C9  <0> d   1       4.437  -5.053   1.762  0.00  0.00     0.038 A 
ATOM      4  C10 <0> d   1       3.919  -5.506   2.943  0.00  0.00     0.021 A 
ATOM      5  C11 <0> d   1       2.590  -5.232   3.270  0.00  0.00     0.051 A 
ATOM      6  C12 <0> d   1       1.780  -4.489   2.396  0.00  0.00     0.101 A 
ATOM      7  O1  <0> d   1       0.546  -4.348   2.927  0.00  0.00    -0.305 OA
ATOM      8  C13 <0> d   1       0.446  -4.951   4.135  0.00  0.00     0.127 A 
ATOM      9  C14 <0> d   1      -0.658  -4.989   4.922  0.00  0.00     0.053 C 
ATOM     10  C21 <0> d   1       1.749  -5.567   4.433  0.00  0.00     0.218 A 
ATOM     11  O2  <0> d   1       2.065  -6.200   5.425  0.00  0.00    -0.284 OA
ENDROOT
BRANCH   1  12
ATOM     12  C6  <0> d   1       1.472  -3.247   0.238  0.00  0.00     0.317 C 
BRANCH  12  13
ATOM     13  N2  <0> d   1       1.595  -1.816   0.545  0.00  0.00     0.096 N 
ATOM     14  C3  <0> d   1       0.977  -0.996  -0.506  0.00  0.00     0.303 C 
ATOM     15  C2  <0> d   1       1.196   0.485  -0.190  0.00  0.00     0.302 C 
ATOM     16  N1  <0> d   1       0.616   0.794   1.124  0.00  0.00     0.087 N 
ATOM     17  C1  <0> d   1       0.740   2.225   1.431  0.00  0.00     0.310 C 
ATOM     18  C5  <0> d   1       1.234  -0.025   2.175  0.00  0.00     0.302 C 
ATOM     19  C4  <0> d   1       1.015  -1.507   1.859  0.00  0.00     0.303 C 
ENDBRANCH  12  13
ENDBRANCH   1  12
BRANCH   2  20
ATOM     20  O3  <0> d   1       4.165  -3.875  -0.285  0.00  0.00    -0.360 OA
ATOM     21  H21 <0> d   1       4.568  -2.998  -0.228  0.00  0.00     0.217 HD
ENDBRANCH   2  20
BRANCH   9  22
ATOM     22  C15 <0> d   1      -1.935  -4.459   4.424  0.00  0.00    -0.033 A 
ATOM     23  C20 <0> d   1      -3.033  -4.345   5.285  0.00  0.00     0.013 A 
ATOM     24  C19 <0> d   1      -4.225  -3.842   4.812  0.00  0.00     0.024 A 
ATOM     25  C18 <0> d   1      -4.342  -3.460   3.485  0.00  0.00     0.034 A 
ATOM     26  C17 <0> d   1      -3.261  -3.575   2.626  0.00  0.00     0.024 A 
ATOM     27 Cl1  <0> d   1      -5.851  -2.834   2.896  0.00  0.00    -0.084 Cl
ATOM     28  C16 <0> d   1      -2.060  -4.071   3.085  0.00  0.00     0.013 A 
ENDBRANCH   9  22
TORSDOF 4
