REMARK  4 active torsions:
REMARK  status: ('A' for Active; 'I' for Inactive)
REMARK    1  A    between atoms: C4_4  and  O3_28 
REMARK    2  A    between atoms: C5_5  and  C17_20 
REMARK    3  A    between atoms: C10_11  and  C11_12 
REMARK    4  A    between atoms: C17_20  and  N1_21 
ROOT
ATOM      1  C1  <0> d   1      -0.082   1.509   0.016  0.00  0.00     0.049 C 
ATOM      2  C2  <0> d   1      -0.072   0.003   0.006  0.00  0.00    -0.042 A 
ATOM      3  C3  <0> d   1      -0.095  -0.674  -1.181  0.00  0.00     0.045 A 
ATOM      4  C4  <0> d   1      -0.086  -2.066  -1.193  0.00  0.00     0.077 A 
ATOM      5  C5  <0> d   1      -0.054  -2.781  -0.006  0.00  0.00     0.038 A 
ATOM      6  C6  <0> d   1      -0.031  -2.109   1.209  0.00  0.00     0.102 A 
ATOM      7  C7  <0> d   1      -0.035  -0.704   1.208  0.00  0.00     0.057 A 
ATOM      8  C8  <0> d   1       0.001  -0.288   2.622  0.00  0.00     0.219 A 
ATOM      9  O1  <0> d   1       0.005   0.847   3.065  0.00  0.00    -0.284 OA
ATOM     10  C9  <0> d   1       0.030  -1.550   3.377  0.00  0.00     0.128 A 
ATOM     11  C10 <0> d   1       0.068  -1.675   4.728  0.00  0.00     0.053 C 
ATOM     12  O2  <0> d   1       0.002  -2.564   2.480  0.00  0.00    -0.305 OA
ENDROOT
BRANCH   5  13
ATOM     13  C17 <0> d   1      -0.045  -4.287  -0.035  0.00  0.00     0.317 C 
BRANCH  13  14
ATOM     14  N1  <0> d   1       1.342  -4.769  -0.076  0.00  0.00     0.096 N 
ATOM     15  C21 <0> d   1       1.402  -6.222   0.134  0.00  0.00     0.303 C 
ATOM     16  C20 <0> d   1       2.865  -6.670   0.163  0.00  0.00     0.302 C 
ATOM     17  N2  <0> d   1       3.515  -6.296  -1.101  0.00  0.00     0.087 N 
ATOM     18  C19 <0> d   1       3.455  -4.843  -1.311  0.00  0.00     0.302 C 
ATOM     19  C22 <0> d   1       4.902  -6.777  -1.142  0.00  0.00     0.310 C 
ATOM     20  C18 <0> d   1       1.992  -4.395  -1.340  0.00  0.00     0.303 C 
ENDBRANCH  13  14
ENDBRANCH   5  13
BRANCH   4  21
ATOM     21  O3  <0> d   1      -0.109  -2.728  -2.377  0.00  0.00    -0.360 OA
ATOM     22  H23 <0> d   1       0.768  -2.914  -2.741  0.00  0.00     0.217 HD
ENDBRANCH   4  21
BRANCH  11  23
ATOM     23  C11 <0> d   1      -0.019  -3.005   5.345  0.00  0.00    -0.033 A 
ATOM     24  C16 <0> d   1      -0.010  -4.154   4.544  0.00  0.00     0.014 A 
ATOM     25  C15 <0> d   1      -0.086  -5.398   5.130  0.00  0.00     0.043 A 
ATOM     26  C14 <0> d   1      -0.182  -5.515   6.509  0.00  0.00     0.116 A 
ATOM     27  C13 <0> d   1      -0.197  -4.381   7.308  0.00  0.00     0.043 A 
ATOM     28  F1  <0> d   1      -0.262  -6.738   7.076  0.00  0.00    -0.206 F 
ATOM     29  C12 <0> d   1      -0.116  -3.130   6.736  0.00  0.00     0.014 A 
ENDBRANCH  11  23
TORSDOF 4
