REMARK  8 active torsions:
REMARK  status: ('A' for Active; 'I' for Inactive)
REMARK    1  A    between atoms: C2_2  and  N1_3 
REMARK    2  A    between atoms: N2_6  and  C7_9 
REMARK    3  A    between atoms: C7_9  and  C8_10 
REMARK    4  A    between atoms: C9_11  and  O3_26 
REMARK    5  A    between atoms: C12_14  and  C14_17 
REMARK    6  A    between atoms: C13_15  and  O1_16 
REMARK    7  A    between atoms: C14_17  and  C15_19 
REMARK    8  A    between atoms: C15_19  and  C16_20 
ROOT
ATOM      1  C8  <0> d   1       1.762  -4.052   4.729  0.00  0.00     0.037 A 
ATOM      2  C9  <0> d   1       0.734  -4.764   5.330  0.00  0.00     0.076 A 
ATOM      3  C10 <0> d   1       0.746  -6.157   5.326  0.00  0.00     0.038 A 
ATOM      4  C11 <0> d   1       1.768  -6.836   4.731  0.00  0.00     0.021 A 
ATOM      5  C12 <0> d   1       2.816  -6.134   4.119  0.00  0.00     0.044 A 
ATOM      6  C13 <0> d   1       2.803  -4.728   4.116  0.00  0.00     0.090 A 
ENDROOT
BRANCH   1   7
ATOM      7  C7  <0> d   1       1.741  -2.545   4.737  0.00  0.00     0.317 C 
BRANCH   7   8
ATOM      8  N2  <0> d   1       1.031  -2.059   3.547  0.00  0.00     0.096 N 
ATOM      9  C4  <0> d   1       0.782  -0.613   3.636  0.00  0.00     0.303 C 
ATOM     10  C3  <0> d   1      -0.027  -0.161   2.418  0.00  0.00     0.302 C 
ATOM     11  N1  <0> d   1       0.713  -0.491   1.192  0.00  0.00     0.091 N 
ATOM     12  C6  <0> d   1       0.961  -1.936   1.103  0.00  0.00     0.302 C 
ATOM     13  C5  <0> d   1       1.770  -2.389   2.321  0.00  0.00     0.303 C 
BRANCH  11  14
ATOM     14  C2  <0> d   1       0.002  -0.004   0.002  0.00  0.00     0.268 C 
ATOM     15  C1  <0> d   1      -0.019   1.526   0.010  0.00  0.00     0.037 C 
ENDBRANCH  11  14
ENDBRANCH   7   8
ENDBRANCH   1   7
BRANCH   6  16
ATOM     16  O1  <0> d   1       3.807  -4.037   3.522  0.00  0.00    -0.359 OA
ATOM     17  H18 <0> d   1       4.548  -3.835   4.110  0.00  0.00     0.217 HD
ENDBRANCH   6  16
BRANCH   2  18
ATOM     18  O3  <0> d   1      -0.288  -4.100   5.926  0.00  0.00    -0.360 OA
ATOM     19  H26 <0> d   1      -1.030  -3.909   5.336  0.00  0.00     0.217 HD
ENDBRANCH   2  18
BRANCH   5  20
ATOM     20  C14 <0> d   1       3.915  -6.862   3.480  0.00  0.00     0.166 C 
ATOM     21  O2  <0> d   1       4.820  -6.251   2.951  0.00  0.00    -0.292 OA
BRANCH  20  22
ATOM     22  C15 <0> d   1       3.922  -8.368   3.480  0.00  0.00     0.122 C 
BRANCH  22  23
ATOM     23  C16 <0> d   1       5.152  -8.865   2.765  0.00  0.00    -0.051 A 
ATOM     24  C21 <0> d   1       6.319  -9.090   3.471  0.00  0.00     0.007 A 
ATOM     25  C20 <0> d   1       7.446  -9.550   2.815  0.00  0.00     0.001 A 
ATOM     26  C19 <0> d   1       7.408  -9.776   1.452  0.00  0.00     0.000 A 
ATOM     27  C18 <0> d   1       6.243  -9.546   0.745  0.00  0.00     0.001 A 
ATOM     28  C17 <0> d   1       5.115  -9.090   1.401  0.00  0.00     0.007 A 
ENDBRANCH  22  23
ENDBRANCH  20  22
ENDBRANCH   5  20
TORSDOF 8
