REMARK  6 active torsions:
REMARK  status: ('A' for Active; 'I' for Inactive)
REMARK    1  A    between atoms: C9_11  and  O4_23 
REMARK    2  A    between atoms: C10_12  and  C11_13 
REMARK    3  A    between atoms: C11_13  and  N1_14 
REMARK    4  A    between atoms: N2_17  and  C16_20 
REMARK    5  A    between atoms: C16_20  and  C17_21 
REMARK    6  A    between atoms: C17_21  and  O3_22 
ROOT
ATOM      1  C1  <0> d   1      -0.018   1.503   0.010  0.00  0.00     0.049 C 
ATOM      2  C2  <0> d   1       0.002  -0.004   0.002  0.00  0.00    -0.043 A 
ATOM      3  C3  <0> d   1       0.006  -0.695  -1.167  0.00  0.00     0.090 A 
ATOM      4  C4  <0> d   1       0.026  -2.105  -1.149  0.00  0.00     0.288 A 
ATOM      5  O1  <0> d   1       0.030  -2.712  -2.204  0.00  0.00    -0.260 OA
ATOM      6  O2  <0> d   1       0.041  -2.795   0.003  0.00  0.00    -0.274 OA
ATOM      7  C5  <0> d   1       0.038  -2.169   1.199  0.00  0.00     0.101 A 
ATOM      8  C6  <0> d   1       0.024  -0.763   1.254  0.00  0.00     0.005 A 
ATOM      9  C7  <0> d   1       0.026  -0.111   2.492  0.00  0.00     0.017 A 
ATOM     10  C8  <0> d   1       0.046  -0.842   3.644  0.00  0.00     0.038 A 
ATOM     11  C9  <0> d   1       0.066  -2.234   3.596  0.00  0.00     0.076 A 
ATOM     12  C10 <0> d   1       0.053  -2.897   2.379  0.00  0.00     0.038 A 
ENDROOT
BRANCH  12  13
ATOM     13  C11 <0> d   1       0.074  -4.403   2.338  0.00  0.00     0.317 C 
BRANCH  13  14
ATOM     14  N1  <0> d   1       1.465  -4.874   2.319  0.00  0.00     0.096 N 
ATOM     15  C15 <0> d   1       1.532  -6.328   2.517  0.00  0.00     0.303 C 
ATOM     16  C14 <0> d   1       2.997  -6.766   2.570  0.00  0.00     0.302 C 
ATOM     17  N2  <0> d   1       3.667  -6.377   1.321  0.00  0.00     0.093 N 
ATOM     18  C13 <0> d   1       3.601  -4.923   1.123  0.00  0.00     0.302 C 
ATOM     19  C12 <0> d   1       2.135  -4.484   1.070  0.00  0.00     0.303 C 
BRANCH  17  20
ATOM     20  C16 <0> d   1       5.059  -6.848   1.302  0.00  0.00     0.298 C 
BRANCH  20  21
ATOM     21  C17 <0> d   1       5.080  -8.377   1.260  0.00  0.00     0.194 C 
BRANCH  21  22
ATOM     22  O3  <0> d   1       4.511  -8.828   0.029  0.00  0.00    -0.399 OA
ATOM     23  H21 <0> d   1       4.491  -9.790  -0.066  0.00  0.00     0.209 HD
ENDBRANCH  21  22
ENDBRANCH  20  21
ENDBRANCH  17  20
ENDBRANCH  13  14
ENDBRANCH  12  13
BRANCH  11  24
ATOM     24  O4  <0> d   1       0.086  -2.948   4.751  0.00  0.00    -0.360 OA
ATOM     25  H22 <0> d   1      -0.791  -3.167   5.093  0.00  0.00     0.217 HD
ENDBRANCH  11  24
TORSDOF 6
