REMARK  11 active torsions:
REMARK  status: ('A' for Active; 'I' for Inactive)
REMARK    1  A    between atoms: C2_2  and  C3_3 
REMARK    2  A    between atoms: C3_3  and  C4_4 
REMARK    3  A    between atoms: C4_4  and  N1_5 
REMARK    4  A    between atoms: N1_5  and  C5_6 
REMARK    5  A    between atoms: N1_5  and  C9_10 
REMARK    6  A    between atoms: C5_6  and  C6_7 
REMARK    7  A    between atoms: C6_7  and  C7_8 
REMARK    8  A    between atoms: C9_10  and  C10_11 
REMARK    9  A    between atoms: C11_12  and  O3_33 
REMARK   10  A    between atoms: C17_19  and  C18_20 
REMARK   11  A    between atoms: N2_22  and  C26_29 
ROOT
ATOM      1  C10 <0> d   1      -1.934  -3.450  -0.008  0.00  0.00     0.036 A 
ATOM      2  C11 <0> d   1      -2.779  -4.549  -0.037  0.00  0.00     0.076 A 
ATOM      3  C12 <0> d   1      -4.161  -4.379  -0.035  0.00  0.00     0.038 A 
ATOM      4  C13 <0> d   1      -4.700  -3.124  -0.004  0.00  0.00     0.021 A 
ATOM      5  C14 <0> d   1      -3.862  -2.009   0.025  0.00  0.00     0.051 A 
ATOM      6  C15 <0> d   1      -2.466  -2.169   0.023  0.00  0.00     0.101 A 
ATOM      7  O1  <0> d   1      -1.889  -0.949   0.054  0.00  0.00    -0.305 OA
ATOM      8  C16 <0> d   1      -2.817   0.037   0.077  0.00  0.00     0.128 A 
ATOM      9  C17 <0> d   1      -2.557   1.375   0.112  0.00  0.00     0.055 C 
ATOM     10  C28 <0> d   1      -4.107  -0.557   0.066  0.00  0.00     0.218 A 
ATOM     11  O2  <0> d   1      -5.185   0.013   0.084  0.00  0.00    -0.284 OA
ENDROOT
BRANCH   9  12
ATOM     12  C18 <0> d   1      -1.175   1.850   0.126  0.00  0.00    -0.005 A 
ATOM     13  C21 <0> d   1      -0.722   3.254   0.166  0.00  0.00     0.002 A 
ATOM     14  C20 <0> d   1       0.681   3.208   0.160  0.00  0.00     0.045 A 
ATOM     15  C22 <0> d   1      -1.381   4.480   0.199  0.00  0.00     0.014 A 
ATOM     16  N2  <0> d   1       1.058   1.881   0.124  0.00  0.00    -0.356 N 
ATOM     17  C25 <0> d   1       1.402   4.397   0.188  0.00  0.00     0.030 A 
ATOM     18  C19 <0> d   1      -0.034   1.077   0.108  0.00  0.00     0.103 A 
ATOM     19  C24 <0> d   1       0.737   5.604   0.221  0.00  0.00     0.002 A 
ATOM     20  C23 <0> d   1      -0.649   5.647   0.227  0.00  0.00     0.001 A 
BRANCH  16  21
ATOM     21  C26 <0> d   1       2.444   1.406   0.108  0.00  0.00     0.124 C 
ATOM     22  C27 <0> d   1       2.972   1.323   1.542  0.00  0.00     0.027 C 
ENDBRANCH  16  21
ENDBRANCH   9  12
BRANCH   1  23
ATOM     23  C9  <0> d   1      -0.440  -3.647  -0.010  0.00  0.00     0.279 C 
BRANCH  23  24
ATOM     24  N1  <0> d   1       0.062  -3.600   1.369  0.00  0.00    -0.067 N 
ATOM     25  H34 <0> d   1       1.161  -3.625   1.330  0.00  0.00     0.280 HD
BRANCH  24  26
ATOM     26  C4  <0> d   1      -0.338  -2.353   2.033  0.00  0.00     0.235 C 
BRANCH  26  27
ATOM     27  C3  <0> d   1       0.402  -2.224   3.366  0.00  0.00     0.027 C 
BRANCH  27  28
ATOM     28  C2  <0> d   1      -0.015  -0.924   4.057  0.00  0.00    -0.003 C 
ATOM     29  C1  <0> d   1       0.725  -0.795   5.390  0.00  0.00     0.005 C 
ENDBRANCH  27  28
ENDBRANCH  26  27
ENDBRANCH  24  26
BRANCH  24  30
ATOM     30  C5  <0> d   1      -0.389  -4.771   2.134  0.00  0.00     0.235 C 
BRANCH  30  31
ATOM     31  C6  <0> d   1       0.413  -6.001   1.703  0.00  0.00     0.027 C 
BRANCH  31  32
ATOM     32  C7  <0> d   1       0.034  -7.192   2.586  0.00  0.00    -0.003 C 
ATOM     33  C8  <0> d   1       0.836  -8.421   2.155  0.00  0.00     0.005 C 
ENDBRANCH  31  32
ENDBRANCH  30  31
ENDBRANCH  24  30
ENDBRANCH  23  24
ENDBRANCH   1  23
BRANCH   2  34
ATOM     34  O3  <0> d   1      -2.255  -5.801  -0.067  0.00  0.00    -0.360 OA
ATOM     35  H35 <0> d   1      -2.921  -6.676  -0.090  0.00  0.00     0.217 HD
ENDBRANCH   2  34
TORSDOF 11
