REMARK  4 active torsions:
REMARK  status: ('A' for Active; 'I' for Inactive)
REMARK    1  A    between atoms: C9_10  and  C10_11 
REMARK    2  A    between atoms: C14_15  and  O2_17 
REMARK    3  A    between atoms: N1_22  and  C20_25 
REMARK    4  A    between atoms: C20_25  and  C21_26 
ROOT
ATOM      1  C1  <0> d   1       0.074   1.497   0.006  0.00  0.00     0.054 C 
ATOM      2  C2  <0> d   1       0.088  -0.010   0.000  0.00  0.00     0.007 A 
ATOM      3  C3  <0> d   1       0.109  -0.697  -1.206  0.00  0.00     0.087 A 
ATOM      4  C4  <0> d   1       0.123  -2.088  -1.224  0.00  0.00     0.005 A 
ATOM      5  C5  <0> d   1       0.114  -2.789  -0.049  0.00  0.00     0.030 A 
ATOM      6  C6  <0> d   1       0.092  -2.111   1.169  0.00  0.00     0.052 A 
ATOM      7  C7  <0> d   1       0.085  -0.707   1.201  0.00  0.00     0.099 A 
ATOM      8  O1  <0> d   1       0.072  -0.279   2.482  0.00  0.00    -0.305 OA
ATOM      9  C8  <0> d   1       0.072  -1.312   3.358  0.00  0.00     0.127 A 
ATOM     10  C9  <0> d   1       0.059  -1.216   4.710  0.00  0.00     0.053 C 
ATOM     11  C17 <0> d   1       0.076  -2.558   2.574  0.00  0.00     0.218 A 
ATOM     12  O3  <0> d   1       0.080  -3.703   2.993  0.00  0.00    -0.284 OA
ATOM     13  C18 <0> d   1       0.154  -2.842  -2.529  0.00  0.00     0.317 C 
ATOM     14  N1  <0> d   1      -0.252  -1.949  -3.623  0.00  0.00     0.121 N 
ATOM     15  C19 <0> d   1       0.500  -0.686  -3.553  0.00  0.00     0.448 C 
ATOM     16  O4  <0> d   1       0.113   0.011  -2.366  0.00  0.00    -0.320 OA
ENDROOT
BRANCH  10  17
ATOM     17  C10 <0> d   1       0.159   0.102   5.354  0.00  0.00    -0.031 A 
ATOM     18  C15 <0> d   1       0.140   1.266   4.580  0.00  0.00     0.048 A 
ATOM     19  C14 <0> d   1       0.228   2.502   5.195  0.00  0.00     0.069 A 
ATOM     20  C13 <0> d   1       0.348   2.585   6.577  0.00  0.00     0.037 A 
ATOM     21  C12 <0> d   1       0.374   1.435   7.345  0.00  0.00     0.004 A 
ATOM     22  C11 <0> d   1       0.281   0.197   6.746  0.00  0.00     0.011 A 
BRANCH  19  23
ATOM     23  O2  <0> d   1       0.203   3.636   4.447  0.00  0.00    -0.356 OA
ATOM     24  C16 <0> d   1       0.304   4.878   5.147  0.00  0.00     0.210 C 
ENDBRANCH  19  23
ENDBRANCH  10  17
BRANCH  14  25
ATOM     25  C20 <0> d   1      -0.070  -2.598  -4.928  0.00  0.00     0.332 C 
BRANCH  25  26
ATOM     26  C21 <0> d   1      -0.718  -1.761  -6.001  0.00  0.00     0.037 A 
ATOM     27  N2  <0> d   1      -0.047  -0.763  -6.543  0.00  0.00    -0.368 N 
ATOM     28  C25 <0> d   1      -0.572  -0.008  -7.488  0.00  0.00     0.088 A 
ATOM     29  H23 <0> d   1       0.857  -0.583  -6.240  0.00  0.00     0.165 HD
ATOM     30  C24 <0> d   1      -1.858  -0.232  -7.939  0.00  0.00     0.017 A 
ATOM     31  C23 <0> d   1      -2.596  -1.269  -7.389  0.00  0.00     0.003 A 
ATOM     32  C22 <0> d   1      -2.010  -2.045  -6.402  0.00  0.00     0.027 A 
ENDBRANCH  25  26
ENDBRANCH  14  25
TORSDOF 4
