REMARK  8 active torsions:
REMARK  status: ('A' for Active; 'I' for Inactive)
REMARK    1  A    between atoms: C2_2  and  C3_3 
REMARK    2  A    between atoms: C3_3  and  O1_4 
REMARK    3  A    between atoms: O1_4  and  C4_5 
REMARK    4  A    between atoms: C4_5  and  C5_7 
REMARK    5  A    between atoms: C8_10  and  O3_13 
REMARK    6  A    between atoms: O3_13  and  C11_14 
REMARK    7  A    between atoms: C13_19  and  C14_20 
REMARK    8  A    between atoms: C17_23  and  O5_27 
ROOT
ATOM      1  C11 <0> d   1      -4.044  -8.781   0.093  0.00  0.00     0.124 A 
ATOM      2  C12 <0> d   1      -5.240  -8.146   0.113  0.00  0.00     0.149 A 
ATOM      3  N1  <0> d   1      -6.210  -9.091   0.231  0.00  0.00    -0.286 N 
ATOM      4  H1  <0> d   1      -7.165  -8.925   0.271  0.00  0.00     0.188 HD
ATOM      5  N2  <0> d   1      -5.591 -10.346   0.285  0.00  0.00    -0.172 NA
ATOM      6  C13 <0> d   1      -4.289 -10.167   0.197  0.00  0.00     0.125 A 
ENDROOT
BRANCH   1   7
ATOM      7  O3  <0> d   1      -2.823  -8.188  -0.015  0.00  0.00    -0.307 OA
BRANCH   7   8
ATOM      8  C8  <0> d   1      -2.769  -6.833   0.015  0.00  0.00     0.076 A 
ATOM      9  C7  <0> d   1      -3.045  -6.153   1.196  0.00  0.00     0.038 A 
ATOM     10  C6  <0> d   1      -2.990  -4.778   1.230  0.00  0.00     0.020 A 
ATOM     11  C5  <0> d   1      -2.655  -4.065   0.075  0.00  0.00     0.039 A 
ATOM     12  C10 <0> d   1      -2.384  -4.752  -1.112  0.00  0.00     0.020 A 
ATOM     13  C9  <0> d   1      -2.436  -6.128  -1.137  0.00  0.00     0.038 A 
BRANCH  11  14
ATOM     14  C4  <0> d   1      -2.595  -2.592   0.107  0.00  0.00     0.293 C 
ATOM     15  O2  <0> d   1      -2.310  -1.974  -0.899  0.00  0.00    -0.259 OA
BRANCH  14  16
ATOM     16  O1  <0> d   1      -2.858  -1.932   1.252  0.00  0.00    -0.318 OA
BRANCH  16  17
ATOM     17  C3  <0> d   1      -2.781  -0.506   1.210  0.00  0.00     0.178 C 
BRANCH  17  18
ATOM     18  C2  <0> d   1      -3.108   0.063   2.592  0.00  0.00     0.022 C 
ATOM     19  C1  <0> d   1      -3.026   1.590   2.548  0.00  0.00     0.007 C 
ENDBRANCH  17  18
ENDBRANCH  16  17
ENDBRANCH  14  16
ENDBRANCH  11  14
ENDBRANCH   7   8
ENDBRANCH   1   7
BRANCH   6  20
ATOM     20  C14 <0> d   1      -3.260 -11.235   0.208  0.00  0.00     0.034 A 
ATOM     21  C19 <0> d   1      -3.643 -12.576   0.317  0.00  0.00     0.122 A 
ATOM     22  C18 <0> d   1      -2.678 -13.569   0.322  0.00  0.00     0.077 A 
ATOM     23  O4  <0> d   1      -4.958 -12.904   0.412  0.00  0.00    -0.191 OA
ATOM     24  C17 <0> d   1      -1.335 -13.232   0.230  0.00  0.00     0.070 A 
ATOM     25  C16 <0> d   1      -0.955 -11.900   0.127  0.00  0.00     0.038 A 
ATOM     26  C15 <0> d   1      -1.910 -10.905   0.116  0.00  0.00     0.020 A 
BRANCH  24  27
ATOM     27  O5  <0> d   1      -0.390 -14.208   0.240  0.00  0.00    -0.356 OA
ATOM     28  C20 <0> d   1      -0.851 -15.556   0.348  0.00  0.00     0.210 C 
ENDBRANCH  24  27
ENDBRANCH   6  20
TORSDOF 8
