REMARK  6 active torsions:
REMARK  status: ('A' for Active; 'I' for Inactive)
REMARK    1  A    between atoms: C2_2  and  N1_3 
REMARK    2  A    between atoms: C4_5  and  C12_14 
REMARK    3  A    between atoms: C9_10  and  O1_12 
REMARK    4  A    between atoms: C18_21  and  O4_33 
REMARK    5  A    between atoms: C19_22  and  C21_25 
REMARK    6  A    between atoms: C21_25  and  N2_26 
ROOT
ATOM      1  C12 <0> d   1       0.760  -1.669  -4.652  0.00  0.00     0.055 C 
ATOM      2  C13 <0> d   1      -0.516  -1.726  -5.127  0.00  0.00     0.128 A 
ATOM      3  C14 <0> d   1      -0.898  -2.147  -6.428  0.00  0.00     0.218 A 
ATOM      4  O2  <0> d   1      -0.167  -2.525  -7.330  0.00  0.00    -0.284 OA
ATOM      5  C15 <0> d   1      -2.366  -2.032  -6.456  0.00  0.00     0.051 A 
ATOM      6  C16 <0> d   1      -3.333  -2.289  -7.428  0.00  0.00     0.021 A 
ATOM      7  C17 <0> d   1      -4.653  -2.079  -7.148  0.00  0.00     0.038 A 
ATOM      8  C18 <0> d   1      -5.037  -1.608  -5.895  0.00  0.00     0.076 A 
ATOM      9  C19 <0> d   1      -4.089  -1.348  -4.919  0.00  0.00     0.038 A 
ATOM     10  C20 <0> d   1      -2.743  -1.557  -5.189  0.00  0.00     0.101 A 
ATOM     11  O3  <0> d   1      -1.633  -1.395  -4.437  0.00  0.00    -0.305 OA
ENDROOT
BRANCH   1  12
ATOM     12  C4  <0> d   1       1.010  -1.219  -3.284  0.00  0.00    -0.005 A 
ATOM     13  C3  <0> d   1       0.069  -0.822  -2.359  0.00  0.00     0.103 A 
ATOM     14  N1  <0> d   1       0.688  -0.476  -1.203  0.00  0.00    -0.356 N 
ATOM     15  C6  <0> d   1       2.056  -0.626  -1.323  0.00  0.00     0.045 A 
ATOM     16  C5  <0> d   1       2.322  -1.100  -2.618  0.00  0.00     0.005 A 
ATOM     17  C7  <0> d   1       3.113  -0.406  -0.446  0.00  0.00     0.033 A 
ATOM     18  C10 <0> d   1       3.632  -1.347  -3.017  0.00  0.00     0.051 A 
ATOM     19  C9  <0> d   1       4.671  -1.115  -2.135  0.00  0.00     0.069 A 
ATOM     20  C8  <0> d   1       4.407  -0.649  -0.851  0.00  0.00     0.039 A 
BRANCH  14  21
ATOM     21  C2  <0> d   1       0.002  -0.004   0.002  0.00  0.00     0.124 C 
ATOM     22  C1  <0> d   1      -0.019   1.526   0.010  0.00  0.00     0.027 C 
ENDBRANCH  14  21
BRANCH  19  23
ATOM     23  O1  <0> d   1       5.954  -1.350  -2.521  0.00  0.00    -0.356 OA
ATOM     24  C11 <0> d   1       6.978  -1.098  -1.557  0.00  0.00     0.210 C 
ENDBRANCH  19  23
ENDBRANCH   1  12
BRANCH   9  25
ATOM     25  C21 <0> d   1      -4.518  -0.838  -3.567  0.00  0.00     0.317 C 
BRANCH  25  26
ATOM     26  N2  <0> d   1      -4.769  -1.976  -2.672  0.00  0.00     0.096 N 
ATOM     27  C25 <0> d   1      -4.957  -1.524  -1.287  0.00  0.00     0.303 C 
ATOM     28  C24 <0> d   1      -5.136  -2.740  -0.376  0.00  0.00     0.302 C 
ATOM     29  N3  <0> d   1      -6.292  -3.525  -0.833  0.00  0.00     0.087 N 
ATOM     30  C23 <0> d   1      -6.104  -3.977  -2.218  0.00  0.00     0.302 C 
ATOM     31  C26 <0> d   1      -6.543  -4.662   0.063  0.00  0.00     0.310 C 
ATOM     32  C22 <0> d   1      -5.924  -2.760  -3.129  0.00  0.00     0.303 C 
ENDBRANCH  25  26
ENDBRANCH   9  25
BRANCH   8  33
ATOM     33  O4  <0> d   1      -6.352  -1.402  -5.628  0.00  0.00    -0.360 OA
ATOM     34  H29 <0> d   1      -6.805  -2.173  -5.260  0.00  0.00     0.217 HD
ENDBRANCH   8  33
TORSDOF 6
