REMARK  6 active torsions:
REMARK  status: ('A' for Active; 'I' for Inactive)
REMARK    1  A    between atoms: C7_7  and  O1_8 
REMARK    2  A    between atoms: C8_9  and  C11_14 
REMARK    3  A    between atoms: C11_14  and  N1_15 
REMARK    4  A    between atoms: N2_18  and  C16_21 
REMARK    5  A    between atoms: C16_21  and  C17_22 
REMARK    6  A    between atoms: C18_23  and  C19_24 
ROOT
ATOM      1  N1  <0> d   1       1.463  -5.181   1.718  0.00  0.00     0.096 N 
ATOM      2  C12 <0> d   1       2.257  -5.995   0.788  0.00  0.00     0.303 C 
ATOM      3  C13 <0> d   1       3.708  -6.049   1.272  0.00  0.00     0.303 C 
ATOM      4  N2  <0> d   1       3.748  -6.614   2.628  0.00  0.00     0.095 N 
ATOM      5  C14 <0> d   1       2.954  -5.799   3.559  0.00  0.00     0.303 C 
ATOM      6  C15 <0> d   1       1.503  -5.745   3.074  0.00  0.00     0.303 C 
ENDROOT
BRANCH   1   7
ATOM      7  C11 <0> d   1       0.079  -5.042   1.246  0.00  0.00     0.312 C 
BRANCH   7   8
ATOM      8  C8  <0> d   1       0.061  -4.242  -0.030  0.00  0.00    -0.011 A 
ATOM      9  C5  <0> d   1       0.041  -2.776  -0.000  0.00  0.00     0.009 A 
ATOM     10  C4  <0> d   1       0.025  -2.069  -1.216  0.00  0.00     0.091 A 
ATOM     11  C6  <0> d   1       0.036  -2.081   1.213  0.00  0.00     0.052 A 
ATOM     12  C3  <0> d   1       0.006  -0.680  -1.199  0.00  0.00     0.047 A 
ATOM     13  O3  <0> d   1       0.028  -2.744  -2.386  0.00  0.00    -0.275 OA
ATOM     14  C2  <0> d   1       0.002  -0.004   0.002  0.00  0.00    -0.026 A 
ATOM     15  C1  <0> d   1      -0.018   1.503   0.010  0.00  0.00     0.051 C 
ATOM     16  C7  <0> d   1       0.023  -0.700   1.207  0.00  0.00     0.072 A 
ATOM     17  C10 <0> d   1       0.047  -4.085  -2.421  0.00  0.00     0.288 A 
ATOM     18  C9  <0> d   1       0.063  -4.858  -1.240  0.00  0.00     0.092 A 
ATOM     19  O2  <0> d   1       0.049  -4.650  -3.499  0.00  0.00    -0.260 OA
BRANCH  16  20
ATOM     20  O1  <0> d   1       0.025  -0.018   2.383  0.00  0.00    -0.360 OA
ATOM     21  H6  <0> d   1      -0.858   0.168   2.732  0.00  0.00     0.217 HD
ENDBRANCH  16  20
ENDBRANCH   7   8
ENDBRANCH   1   7
BRANCH   4  22
ATOM     22  C16 <0> d   1       5.133  -6.752   3.100  0.00  0.00     0.300 C 
BRANCH  22  23
ATOM     23  C17 <0> d   1       5.150  -7.553   4.377  0.00  0.00     0.004 C 
ATOM     24  C18 <0> d   1       5.904  -8.639   4.467  0.00  0.00     0.009 C 
BRANCH  24  25
ATOM     25  C19 <0> d   1       5.921  -9.424   5.720  0.00  0.00    -0.036 A 
ATOM     26  C24 <0> d   1       6.714 -10.569   5.818  0.00  0.00     0.011 A 
ATOM     27  C23 <0> d   1       6.731 -11.293   6.992  0.00  0.00     0.001 A 
ATOM     28  C22 <0> d   1       5.955 -10.895   8.066  0.00  0.00     0.000 A 
ATOM     29  C21 <0> d   1       5.162  -9.764   7.973  0.00  0.00     0.001 A 
ATOM     30  C20 <0> d   1       5.142  -9.027   6.806  0.00  0.00     0.011 A 
ENDBRANCH  24  25
ENDBRANCH  22  23
ENDBRANCH   4  22
TORSDOF 6
