REMARK  4 active torsions:
REMARK  status: ('A' for Active; 'I' for Inactive)
REMARK    1  A    between atoms: C5_5  and  C17_20 
REMARK    2  A    between atoms: C10_11  and  C11_12 
REMARK    3  A    between atoms: C17_20  and  N1_21 
REMARK    4  A    between atoms: N2_24  and  C22_27 
ROOT
ATOM      1  C1  <0> d   1      -0.478   1.831   0.204  0.00  0.00     0.049 C 
ATOM      2  C2  <0> d   1      -0.342   0.336   0.072  0.00  0.00    -0.042 A 
ATOM      3  C3  <0> d   1      -0.345  -0.245  -1.164  0.00  0.00     0.048 A 
ATOM      4  C4  <0> d   1      -0.220  -1.625  -1.289  0.00  0.00     0.118 A 
ATOM      5  C5  <0> d   1      -0.090  -2.425  -0.165  0.00  0.00     0.039 A 
ATOM      6  C6  <0> d   1      -0.084  -1.851   1.100  0.00  0.00     0.102 A 
ATOM      7  C7  <0> d   1      -0.206  -0.456   1.212  0.00  0.00     0.057 A 
ATOM      8  C8  <0> d   1      -0.160  -0.150   2.654  0.00  0.00     0.219 A 
ATOM      9  O1  <0> d   1      -0.238   0.943   3.187  0.00  0.00    -0.284 OA
ATOM     10  C9  <0> d   1      -0.001  -1.460   3.304  0.00  0.00     0.128 A 
ATOM     11  C10 <0> d   1       0.090  -1.686   4.639  0.00  0.00     0.053 C 
ATOM     12  O2  <0> d   1       0.027  -2.399   2.330  0.00  0.00    -0.305 OA
ATOM     13  O3  <0> d   1      -0.224  -2.193  -2.522  0.00  0.00    -0.191 OA
ENDROOT
BRANCH   5  14
ATOM     14  C17 <0> d   1       0.045  -3.919  -0.314  0.00  0.00     0.279 C 
BRANCH  14  15
ATOM     15  N1  <0> d   1       1.466  -4.273  -0.429  0.00  0.00    -0.064 N 
ATOM     16  C21 <0> d   1       1.603  -5.735  -0.454  0.00  0.00     0.255 C 
ATOM     17  C20 <0> d   1       3.090  -6.107  -0.458  0.00  0.00     0.150 C 
ATOM     18  N2  <0> d   1       3.740  -5.417  -1.582  0.00  0.00    -0.378 N 
ATOM     19  C19 <0> d   1       3.521  -3.970  -1.728  0.00  0.00     0.150 C 
ATOM     20  C18 <0> d   1       2.014  -3.698  -1.664  0.00  0.00     0.255 C 
ATOM     21  H24 <0> d   1       1.969  -3.903   0.364  0.00  0.00     0.280 HD
BRANCH  18  22
ATOM     22  C22 <0> d   1       4.544  -6.116  -2.486  0.00  0.00     0.031 A 
ATOM     23  C27 <0> d   1       4.643  -7.498  -2.404  0.00  0.00     0.053 A 
ATOM     24  C26 <0> d   1       5.435  -8.187  -3.304  0.00  0.00     0.036 A 
ATOM     25  C25 <0> d   1       6.136  -7.499  -4.279  0.00  0.00     0.024 A 
ATOM     26 Cl1  <0> d   1       5.555  -9.916  -3.208  0.00  0.00    -0.084 Cl
ATOM     27  C24 <0> d   1       6.043  -6.121  -4.359  0.00  0.00     0.004 A 
ATOM     28  C23 <0> d   1       5.249  -5.428  -3.466  0.00  0.00     0.029 A 
ENDBRANCH  18  22
ENDBRANCH  14  15
ENDBRANCH   5  14
BRANCH  11  29
ATOM     29  C11 <0> d   1       0.136  -3.063   5.149  0.00  0.00    -0.033 A 
ATOM     30  C16 <0> d   1       0.214  -4.141   4.258  0.00  0.00     0.014 A 
ATOM     31  C15 <0> d   1       0.263  -5.429   4.744  0.00  0.00     0.043 A 
ATOM     32  C14 <0> d   1       0.222  -5.660   6.111  0.00  0.00     0.116 A 
ATOM     33  C13 <0> d   1       0.138  -4.598   6.998  0.00  0.00     0.043 A 
ATOM     34  F1  <0> d   1       0.263  -6.927   6.580  0.00  0.00    -0.206 F 
ATOM     35  C12 <0> d   1       0.095  -3.304   6.527  0.00  0.00     0.014 A 
ENDBRANCH  11  29
TORSDOF 4
