REMARK  3 active torsions:
REMARK  status: ('A' for Active; 'I' for Inactive)
REMARK    1  A    between atoms: C4_4  and  C15_18 
REMARK    2  A    between atoms: C9_10  and  C10_11 
REMARK    3  A    between atoms: C15_18  and  N2_19 
ROOT
ATOM      1  C1  <0> d   1      -2.027   2.511  -3.510  0.00  0.00     0.021 A 
ATOM      2  C2  <0> d   1      -1.012   3.240  -2.958  0.00  0.00     0.041 A 
ATOM      3  C3  <0> d   1      -0.343   2.767  -1.833  0.00  0.00     0.118 A 
ATOM      4  C4  <0> d   1      -0.696   1.555  -1.260  0.00  0.00     0.041 A 
ATOM      5  C5  <0> d   1      -1.722   0.798  -1.812  0.00  0.00     0.101 A 
ATOM      6  C6  <0> d   1      -2.393   1.289  -2.944  0.00  0.00     0.051 A 
ATOM      7  C7  <0> d   1      -3.417   0.286  -3.287  0.00  0.00     0.218 A 
ATOM      8  O1  <0> d   1      -4.217   0.320  -4.205  0.00  0.00    -0.284 OA
ATOM      9  C8  <0> d   1      -3.257  -0.767  -2.267  0.00  0.00     0.127 A 
ATOM     10  C9  <0> d   1      -3.985  -1.906  -2.171  0.00  0.00     0.053 C 
ATOM     11  O2  <0> d   1      -2.251  -0.389  -1.445  0.00  0.00    -0.305 OA
ATOM     12  O4  <0> d   1       0.665   3.498  -1.292  0.00  0.00    -0.191 OA
ENDROOT
BRANCH   4  13
ATOM     13  C15 <0> d   1       0.038   1.054  -0.043  0.00  0.00     0.317 C 
BRANCH  13  14
ATOM     14  N2  <0> d   1      -0.634   1.542   1.169  0.00  0.00     0.097 N 
ATOM     15  C19 <0> d   1      -0.096   0.888   2.370  0.00  0.00     0.299 C 
ATOM     16  C18 <0> d   1      -0.863   1.380   3.600  0.00  0.00     0.198 C 
ATOM     17  O3  <0> d   1      -0.772   2.806   3.674  0.00  0.00    -0.388 OA
ATOM     18  C17 <0> d   1      -1.288   3.475   2.520  0.00  0.00     0.198 C 
ATOM     19  C16 <0> d   1      -0.525   3.004   1.279  0.00  0.00     0.299 C 
ENDBRANCH  13  14
ENDBRANCH   4  13
BRANCH  10  20
ATOM     20  C10 <0> d   1      -3.634  -2.921  -1.165  0.00  0.00    -0.031 A 
ATOM     21  C14 <0> d   1      -2.631  -2.678  -0.215  0.00  0.00     0.030 A 
ATOM     22  C13 <0> d   1      -2.335  -3.659   0.709  0.00  0.00     0.117 A 
ATOM     23  N1  <0> d   1      -2.981  -4.809   0.707  0.00  0.00    -0.273 NA
ATOM     24  C12 <0> d   1      -3.931  -5.079  -0.167  0.00  0.00     0.117 A 
ATOM     25  C11 <0> d   1      -4.297  -4.156  -1.124  0.00  0.00     0.030 A 
ENDBRANCH  10  20
TORSDOF 3
