REMARK  4 active torsions:
REMARK  status: ('A' for Active; 'I' for Inactive)
REMARK    1  A    between atoms: C3_3  and  O2_24 
REMARK    2  A    between atoms: C6_6  and  C8_9 
REMARK    3  A    between atoms: C7_7  and  O1_8 
REMARK    4  A    between atoms: C9_10  and  C11_15 
ROOT
ATOM      1  C8  <0> d   1       0.051  -2.856   2.454  0.00  0.00     0.077 A 
ATOM      2  C9  <0> d   1      -0.960  -2.888   3.410  0.00  0.00     0.048 A 
ATOM      3  C10 <0> d   1      -0.520  -3.728   4.452  0.00  0.00     0.155 A 
ATOM      4  N1  <0> d   1       0.670  -4.172   4.152  0.00  0.00    -0.186 NA
ATOM      5  N2  <0> d   1       1.055  -3.653   2.910  0.00  0.00    -0.277 N 
ATOM      6  H1  <0> d   1       1.893  -3.830   2.455  0.00  0.00     0.189 HD
ENDROOT
BRANCH   1   7
ATOM      7  C6  <0> d   1       0.036  -2.104   1.184  0.00  0.00     0.027 A 
ATOM      8  C5  <0> d   1       0.039  -2.786  -0.034  0.00  0.00     0.019 A 
ATOM      9  C4  <0> d   1       0.024  -2.080  -1.218  0.00  0.00     0.038 A 
ATOM     10  C3  <0> d   1       0.006  -0.691  -1.204  0.00  0.00     0.074 A 
ATOM     11  C2  <0> d   1       0.002  -0.004   0.002  0.00  0.00     0.005 A 
ATOM     12  C1  <0> d   1      -0.018   1.503   0.010  0.00  0.00     0.054 C 
ATOM     13  C7  <0> d   1       0.023  -0.702   1.197  0.00  0.00     0.086 A 
BRANCH  10  14
ATOM     14  O2  <0> d   1      -0.009  -0.002  -2.375  0.00  0.00    -0.360 OA
ATOM     15  H13 <0> d   1       0.870   0.209  -2.718  0.00  0.00     0.217 HD
ENDBRANCH  10  14
BRANCH  13  16
ATOM     16  O1  <0> d   1       0.025  -0.031   2.377  0.00  0.00    -0.359 OA
ATOM     17  H7  <0> d   1      -0.857   0.152   2.728  0.00  0.00     0.217 HD
ENDBRANCH  13  16
ENDBRANCH   1   7
BRANCH   2  18
ATOM     18  C11 <0> d   1      -2.251  -2.178   3.345  0.00  0.00     0.113 A 
ATOM     19  S1  <0> d   1      -3.590  -2.173   4.529  0.00  0.00    -0.067 SA
ATOM     20  C17 <0> d   1      -4.673  -1.083   3.636  0.00  0.00     0.035 A 
ATOM     21  C12 <0> d   1      -3.923  -0.800   2.470  0.00  0.00     0.075 A 
ATOM     22  C16 <0> d   1      -5.922  -0.558   3.857  0.00  0.00     0.021 A 
ATOM     23  N3  <0> d   1      -2.713  -1.389   2.397  0.00  0.00    -0.239 NA
ATOM     24  C13 <0> d   1      -4.534   0.062   1.530  0.00  0.00     0.033 A 
ATOM     25  C14 <0> d   1      -5.772   0.577   1.758  0.00  0.00     0.002 A 
ATOM     26  C15 <0> d   1      -6.483   0.281   2.912  0.00  0.00     0.002 A 
ENDBRANCH   2  18
TORSDOF 4
