REMARK  2 active torsions:
REMARK  status: ('A' for Active; 'I' for Inactive)
REMARK    1  A    between atoms: C8_9  and  C11_14 
REMARK    2  A    between atoms: C11_14  and  N1_15 
ROOT
ATOM      1  C1  <0> d   1       4.107   6.444   4.874  0.00  0.00     0.050 C 
ATOM      2  C2  <0> d   1       2.895   5.607   4.554  0.00  0.00    -0.038 A 
ATOM      3  C3  <0> d   1       2.582   4.526   5.351  0.00  0.00     0.046 A 
ATOM      4  C4  <0> d   1       1.467   3.750   5.062  0.00  0.00     0.090 A 
ATOM      5  C5  <0> d   1       0.665   4.077   3.954  0.00  0.00     0.008 A 
ATOM      6  C6  <0> d   1       0.994   5.176   3.154  0.00  0.00     0.039 A 
ATOM      7  C7  <0> d   1       2.105   5.932   3.459  0.00  0.00     0.041 A 
ATOM      8 Cl1  <0> d   1       2.519   7.297   2.470  0.00  0.00    -0.084 Cl
ATOM      9  C8  <0> d   1      -0.510   3.252   3.658  0.00  0.00    -0.014 A 
ATOM     10  C9  <0> d   1      -0.779   2.203   4.476  0.00  0.00     0.092 A 
ATOM     11  C10 <0> d   1       0.071   1.930   5.569  0.00  0.00     0.288 A 
ATOM     12  O1  <0> d   1      -0.178   0.984   6.293  0.00  0.00    -0.260 OA
ATOM     13  O2  <0> d   1       1.146   2.689   5.833  0.00  0.00    -0.275 OA
ENDROOT
BRANCH   9  14
ATOM     14  C11 <0> d   1      -1.399   3.565   2.482  0.00  0.00     0.274 C 
BRANCH  14  15
ATOM     15  N1  <0> d   1      -0.783   3.048   1.252  0.00  0.00    -0.064 N 
ATOM     16  C15 <0> d   1      -1.495   3.536   0.062  0.00  0.00     0.265 C 
ATOM     17  C14 <0> d   1      -0.777   3.042  -1.196  0.00  0.00     0.299 C 
ATOM     18  N2  <0> d   1      -0.724   1.573  -1.182  0.00  0.00     0.087 N 
ATOM     19  C13 <0> d   1      -0.013   1.086   0.008  0.00  0.00     0.299 C 
ATOM     20  C16 <0> d   1      -0.109   1.057  -2.412  0.00  0.00     0.310 C 
ATOM     21  C12 <0> d   1      -0.730   1.580   1.267  0.00  0.00     0.265 C 
ATOM     22  H20 <0> d   1       0.249   3.425   1.208  0.00  0.00     0.280 HD
ENDBRANCH  14  15
ENDBRANCH   9  14
TORSDOF 2
