REMARK  5 active torsions:
REMARK  status: ('A' for Active; 'I' for Inactive)
REMARK    1  A    between atoms: C2_2  and  N1_3 
REMARK    2  A    between atoms: N2_6  and  C7_9 
REMARK    3  A    between atoms: C7_9  and  C8_10 
REMARK    4  A    between atoms: C9_11  and  O3_27 
REMARK    5  A    between atoms: C15_18  and  C16_19 
ROOT
ATOM      1  C8  <0> d   1      -4.821  -4.117  -0.920  0.00  0.00     0.038 A 
ATOM      2  C9  <0> d   1      -4.803  -4.805  -2.123  0.00  0.00     0.076 A 
ATOM      3  C10 <0> d   1      -4.794  -6.197  -2.143  0.00  0.00     0.038 A 
ATOM      4  C11 <0> d   1      -4.804  -6.900  -0.972  0.00  0.00     0.021 A 
ATOM      5  C12 <0> d   1      -4.822  -6.221   0.247  0.00  0.00     0.051 A 
ATOM      6  C13 <0> d   1      -4.825  -4.817   0.280  0.00  0.00     0.101 A 
ATOM      7  O1  <0> d   1      -4.837  -4.391   1.561  0.00  0.00    -0.305 OA
ATOM      8  C14 <0> d   1      -4.837  -5.424   2.436  0.00  0.00     0.128 A 
ATOM      9  C15 <0> d   1      -4.847  -5.329   3.788  0.00  0.00     0.054 C 
ATOM     10  C21 <0> d   1      -4.837  -6.669   1.651  0.00  0.00     0.218 A 
ATOM     11  O2  <0> d   1      -4.835  -7.814   2.069  0.00  0.00    -0.284 OA
ENDROOT
BRANCH   1  12
ATOM     12  C7  <0> d   1      -4.830  -2.610  -0.914  0.00  0.00     0.317 C 
BRANCH  12  13
ATOM     13  N2  <0> d   1      -3.449  -2.112  -0.903  0.00  0.00     0.096 N 
ATOM     14  C4  <0> d   1      -3.410  -0.662  -1.135  0.00  0.00     0.303 C 
ATOM     15  C3  <0> d   1      -1.953  -0.196  -1.194  0.00  0.00     0.302 C 
ATOM     16  N1  <0> d   1      -1.279  -0.543   0.065  0.00  0.00     0.091 N 
ATOM     17  C6  <0> d   1      -1.317  -1.994   0.296  0.00  0.00     0.302 C 
ATOM     18  C5  <0> d   1      -2.774  -2.459   0.356  0.00  0.00     0.303 C 
BRANCH  16  19
ATOM     19  C2  <0> d   1       0.103  -0.045   0.076  0.00  0.00     0.268 C 
ATOM     20  C1  <0> d   1       0.094   1.485   0.082  0.00  0.00     0.037 C 
ENDBRANCH  16  19
ENDBRANCH  12  13
ENDBRANCH   1  12
BRANCH   2  21
ATOM     21  O3  <0> d   1      -4.794  -4.116  -3.292  0.00  0.00    -0.360 OA
ATOM     22  H23 <0> d   1      -3.908  -3.910  -3.621  0.00  0.00     0.217 HD
ENDBRANCH   2  21
BRANCH   9  23
ATOM     23  C16 <0> d   1      -4.747  -4.012   4.434  0.00  0.00    -0.016 A 
ATOM     24  C20 <0> d   1      -4.629  -3.907   5.824  0.00  0.00     0.127 A 
ATOM     25  N3  <0> d   1      -4.535  -2.727   6.399  0.00  0.00    -0.272 NA
ATOM     26  C19 <0> d   1      -4.558  -1.607   5.702  0.00  0.00     0.116 A 
ATOM     27  C18 <0> d   1      -4.677  -1.624   4.323  0.00  0.00     0.020 A 
ATOM     28  C17 <0> d   1      -4.774  -2.837   3.667  0.00  0.00     0.014 A 
ENDBRANCH   9  23
TORSDOF 5
