REMARK  3 active torsions:
REMARK  status: ('A' for Active; 'I' for Inactive)
REMARK    1  A    between atoms: N1_7  and  C7_8 
REMARK    2  A    between atoms: C7_8  and  C8_9 
REMARK    3  A    between atoms: C15_17  and  C17_20 
ROOT
ATOM      1  C8  <0> d   1      -7.211  -3.042  -0.151  0.00  0.00     0.039 A 
ATOM      2  C9  <0> d   1      -8.254  -2.816   0.731  0.00  0.00     0.118 A 
ATOM      3  C10 <0> d   1      -8.157  -1.825   1.705  0.00  0.00     0.041 A 
ATOM      4  C11 <0> d   1      -7.028  -1.062   1.802  0.00  0.00     0.021 A 
ATOM      5  C12 <0> d   1      -5.969  -1.278   0.921  0.00  0.00     0.050 A 
ATOM      6  C13 <0> d   1      -6.057  -2.275  -0.067  0.00  0.00     0.100 A 
ATOM      7  O1  <0> d   1      -5.032  -2.482  -0.917  0.00  0.00    -0.320 OA
ATOM      8  C14 <0> d   1      -3.898  -1.778  -0.884  0.00  0.00     0.159 A 
ATOM      9  C15 <0> d   1      -3.680  -0.785   0.017  0.00  0.00     0.048 A 
ATOM     10  C16 <0> d   1      -4.733  -0.478   0.999  0.00  0.00     0.197 A 
ATOM     11  O2  <0> d   1      -4.592   0.399   1.834  0.00  0.00    -0.286 OA
ATOM     12  O5  <0> d   1      -9.382  -3.567   0.646  0.00  0.00    -0.191 OA
ENDROOT
BRANCH   9  13
ATOM     13  C17 <0> d   1      -2.403  -0.030   0.015  0.00  0.00    -0.017 A 
ATOM     14  C22 <0> d   1      -1.189  -0.712   0.004  0.00  0.00     0.052 A 
ATOM     15  C21 <0> d   1       0.002  -0.004   0.002  0.00  0.00     0.102 A 
ATOM     16  C20 <0> d   1      -0.017   1.387   0.010  0.00  0.00     0.102 A 
ATOM     17  O3  <0> d   1       1.181  -0.685  -0.006  0.00  0.00    -0.346 OA
ATOM     18  C19 <0> d   1      -1.228   2.065   0.019  0.00  0.00     0.040 A 
ATOM     19  O4  <0> d   1       1.144   2.098   0.002  0.00  0.00    -0.346 OA
ATOM     20  C18 <0> d   1      -2.416   1.364   0.025  0.00  0.00     0.015 A 
ATOM     21  C24 <0> d   1       2.335   1.391   0.365  0.00  0.00     0.202 C 
ATOM     22  C23 <0> d   1       2.347   0.053  -0.386  0.00  0.00     0.202 C 
ENDBRANCH   9  13
BRANCH   1  23
ATOM     23  C7  <0> d   1      -7.329  -4.117  -1.201  0.00  0.00     0.279 C 
BRANCH  23  24
ATOM     24  N1  <0> d   1      -6.822  -5.385  -0.661  0.00  0.00    -0.063 N 
ATOM     25  C2  <0> d   1      -7.134  -6.503  -1.561  0.00  0.00     0.184 C 
ATOM     26  C1  <0> d   1      -6.612  -6.189  -2.964  0.00  0.00     0.040 C 
ATOM     27  C3  <0> d   1      -6.468  -7.779  -1.042  0.00  0.00     0.033 C 
ATOM     28  C4  <0> d   1      -6.979  -8.078   0.370  0.00  0.00     0.004 C 
ATOM     29  C5  <0> d   1      -6.684  -6.879   1.275  0.00  0.00     0.028 C 
ATOM     30  C6  <0> d   1      -7.344  -5.629   0.690  0.00  0.00     0.235 C 
ATOM     31  H25 <0> d   1      -5.726  -5.310  -0.589  0.00  0.00     0.280 HD
ENDBRANCH  23  24
ENDBRANCH   1  23
TORSDOF 3
