REMARK  9 active torsions:
REMARK  status: ('A' for Active; 'I' for Inactive)
REMARK    1  A    between atoms: C2_2  and  O1_3 
REMARK    2  A    between atoms: O1_3  and  C3_4 
REMARK    3  A    between atoms: C3_4  and  C4_6 
REMARK    4  A    between atoms: C5_7  and  C19_26 
REMARK    5  A    between atoms: C10_13  and  O5_25 
REMARK    6  A    between atoms: C11_14  and  C13_17 
REMARK    7  A    between atoms: C13_17  and  N1_18 
REMARK    8  A    between atoms: C22_29  and  O7_34 
REMARK    9  A    between atoms: C23_30  and  O6_32 
ROOT
ATOM      1  C4  <0> d   1      -3.596   2.095   0.047  0.00  0.00     0.166 A 
ATOM      2  C5  <0> d   1      -3.737   3.465   0.056  0.00  0.00     0.065 A 
ATOM      3  C6  <0> d   1      -2.515   4.300   0.048  0.00  0.00     0.199 A 
ATOM      4  O3  <0> d   1      -2.573   5.516   0.055  0.00  0.00    -0.286 OA
ATOM      5  C7  <0> d   1      -1.225   3.589   0.032  0.00  0.00     0.050 A 
ATOM      6  C8  <0> d   1      -0.017   4.291   0.025  0.00  0.00     0.021 A 
ATOM      7  C9  <0> d   1       1.165   3.607   0.010  0.00  0.00     0.038 A 
ATOM      8  C10 <0> d   1       1.170   2.212   0.003  0.00  0.00     0.076 A 
ATOM      9  C11 <0> d   1      -0.018   1.503   0.010  0.00  0.00     0.038 A 
ATOM     10  C12 <0> d   1      -1.230   2.182   0.020  0.00  0.00     0.101 A 
ATOM     11  O4  <0> d   1      -2.392   1.501   0.032  0.00  0.00    -0.302 OA
ENDROOT
BRANCH   2  12
ATOM     12  C19 <0> d   1      -5.078   4.088   0.072  0.00  0.00    -0.016 A 
ATOM     13  C24 <0> d   1      -5.508   4.852  -1.014  0.00  0.00     0.052 A 
ATOM     14  C23 <0> d   1      -6.763   5.432  -0.994  0.00  0.00     0.102 A 
ATOM     15  C22 <0> d   1      -7.595   5.253   0.109  0.00  0.00     0.101 A 
ATOM     16  C21 <0> d   1      -7.167   4.493   1.188  0.00  0.00     0.040 A 
ATOM     17  C20 <0> d   1      -5.919   3.908   1.173  0.00  0.00     0.015 A 
BRANCH  14  18
ATOM     18  O6  <0> d   1      -7.184   6.177  -2.051  0.00  0.00    -0.353 OA
ATOM     19  C25 <0> d   1      -6.279   6.319  -3.147  0.00  0.00     0.210 C 
ENDBRANCH  14  18
BRANCH  15  20
ATOM     20  O7  <0> d   1      -8.828   5.824   0.127  0.00  0.00    -0.353 OA
ATOM     21  C26 <0> d   1      -9.629   5.600   1.289  0.00  0.00     0.210 C 
ENDBRANCH  15  20
ENDBRANCH   2  12
BRANCH   1  22
ATOM     22  C3  <0> d   1      -4.807   1.253   0.054  0.00  0.00     0.318 C 
ATOM     23  O2  <0> d   1      -5.906   1.770   0.068  0.00  0.00    -0.257 OA
BRANCH  22  24
ATOM     24  O1  <0> d   1      -4.694  -0.091   0.046  0.00  0.00    -0.316 OA
BRANCH  24  25
ATOM     25  C2  <0> d   1      -5.928  -0.856   0.054  0.00  0.00     0.175 C 
ATOM     26  C1  <0> d   1      -5.601  -2.351   0.043  0.00  0.00     0.034 C 
ENDBRANCH  24  25
ENDBRANCH  22  24
ENDBRANCH   1  22
BRANCH   9  27
ATOM     27  C13 <0> d   1       0.002  -0.004   0.002  0.00  0.00     0.317 C 
BRANCH  27  28
ATOM     28  N1  <0> d   1       0.022  -0.501   1.384  0.00  0.00     0.096 N 
ATOM     29  C17 <0> d   1      -0.196  -1.954   1.425  0.00  0.00     0.303 C 
ATOM     30  C16 <0> d   1      -0.248  -2.419   2.882  0.00  0.00     0.302 C 
ATOM     31  N2  <0> d   1       1.009  -2.059   3.553  0.00  0.00     0.087 N 
ATOM     32  C15 <0> d   1       1.227  -0.606   3.513  0.00  0.00     0.302 C 
ATOM     33  C18 <0> d   1       1.029  -2.556   4.935  0.00  0.00     0.310 C 
ATOM     34  C14 <0> d   1       1.279  -0.141   2.055  0.00  0.00     0.303 C 
ENDBRANCH  27  28
ENDBRANCH   9  27
BRANCH   8  35
ATOM     35  O5  <0> d   1       2.352   1.545  -0.012  0.00  0.00    -0.360 OA
ATOM     36  H21 <0> d   1       2.362   0.445  -0.018  0.00  0.00     0.217 HD
ENDBRANCH   8  35
TORSDOF 9
