REMARK  7 active torsions:
REMARK  status: ('A' for Active; 'I' for Inactive)
REMARK    1  A    between atoms: C4_4  and  C7_7 
REMARK    2  A    between atoms: C8_8  and  C9_9 
REMARK    3  A    between atoms: C9_9  and  N1_10 
REMARK    4  A    between atoms: N2_13  and  C14_16 
REMARK    5  A    between atoms: C14_16  and  C15_17 
REMARK    6  A    between atoms: C21_25  and  O3_34 
REMARK    7  A    between atoms: C22_26  and  C24_28 
ROOT
ATOM      1  C15 <0> d   1       6.847  -7.889   3.408  0.00  0.00    -0.011 A 
ATOM      2  C16 <0> d   1       7.896  -7.455   4.153  0.00  0.00     0.092 A 
ATOM      3  C17 <0> d   1       9.119  -8.158   4.120  0.00  0.00     0.288 A 
ATOM      4  O1  <0> d   1      10.052  -7.758   4.793  0.00  0.00    -0.260 OA
ATOM      5  O2  <0> d   1       9.280  -9.257   3.367  0.00  0.00    -0.275 OA
ATOM      6  C18 <0> d   1       8.276  -9.742   2.602  0.00  0.00     0.091 A 
ATOM      7  C19 <0> d   1       7.028  -9.092   2.592  0.00  0.00     0.009 A 
ATOM      8  C20 <0> d   1       5.982  -9.590   1.807  0.00  0.00     0.052 A 
ATOM      9  C21 <0> d   1       6.177 -10.724   1.047  0.00  0.00     0.077 A 
ATOM     10  C22 <0> d   1       7.420 -11.375   1.060  0.00  0.00     0.010 A 
ATOM     11  C23 <0> d   1       8.465 -10.878   1.831  0.00  0.00     0.053 A 
ENDROOT
BRANCH   1  12
ATOM     12  C14 <0> d   1       5.530  -7.157   3.426  0.00  0.00     0.312 C 
BRANCH  12  13
ATOM     13  N2  <0> d   1       5.476  -6.218   2.297  0.00  0.00     0.096 N 
ATOM     14  C11 <0> d   1       4.126  -5.660   2.139  0.00  0.00     0.303 C 
ATOM     15  C10 <0> d   1       4.093  -4.752   0.908  0.00  0.00     0.303 C 
ATOM     16  N1  <0> d   1       5.087  -3.681   1.066  0.00  0.00     0.095 N 
ATOM     17  C13 <0> d   1       6.437  -4.239   1.223  0.00  0.00     0.303 C 
ATOM     18  C12 <0> d   1       6.470  -5.147   2.454  0.00  0.00     0.303 C 
BRANCH  16  19
ATOM     19  C9  <0> d   1       5.033  -2.743  -0.063  0.00  0.00     0.300 C 
BRANCH  19  20
ATOM     20  C8  <0> d   1       3.716  -2.010  -0.046  0.00  0.00     0.004 C 
ATOM     21  C7  <0> d   1       3.695  -0.685  -0.038  0.00  0.00     0.009 C 
BRANCH  21  22
ATOM     22  C4  <0> d   1       2.403   0.034  -0.021  0.00  0.00    -0.036 A 
ATOM     23  C3  <0> d   1       2.377   1.429  -0.013  0.00  0.00     0.011 A 
ATOM     24  C2  <0> d   1       1.168   2.093   0.002  0.00  0.00     0.001 A 
ATOM     25  C1  <0> d   1      -0.017   1.379   0.010  0.00  0.00     0.000 A 
ATOM     26  C6  <0> d   1       0.002  -0.004   0.002  0.00  0.00     0.001 A 
ATOM     27  C5  <0> d   1       1.204  -0.681  -0.013  0.00  0.00     0.011 A 
ENDBRANCH  21  22
ENDBRANCH  19  20
ENDBRANCH  16  19
ENDBRANCH  12  13
ENDBRANCH   1  12
BRANCH   9  28
ATOM     28  O3  <0> d   1       5.164 -11.211   0.283  0.00  0.00    -0.360 OA
ATOM     29  H28 <0> d   1       5.141 -10.852  -0.615  0.00  0.00     0.217 HD
ENDBRANCH   9  28
BRANCH  10  30
ATOM     30  C24 <0> d   1       7.622 -12.594   0.241  0.00  0.00    -0.023 A 
ATOM     31  C29 <0> d   1       6.706 -13.642   0.307  0.00  0.00     0.012 A 
ATOM     32  C28 <0> d   1       6.897 -14.771  -0.463  0.00  0.00     0.001 A 
ATOM     33  C27 <0> d   1       8.001 -14.869  -1.289  0.00  0.00     0.000 A 
ATOM     34  C26 <0> d   1       8.917 -13.835  -1.355  0.00  0.00     0.001 A 
ATOM     35  C25 <0> d   1       8.734 -12.698  -0.594  0.00  0.00     0.012 A 
ENDBRANCH  10  30
TORSDOF 7
