REMARK  7 active torsions:
REMARK  status: ('A' for Active; 'I' for Inactive)
REMARK    1  A    between atoms: C8_8  and  C9_10 
REMARK    2  A    between atoms: C15_17  and  O5_31 
REMARK    3  A    between atoms: C16_18  and  C18_21 
REMARK    4  A    between atoms: C18_21  and  N1_22 
REMARK    5  A    between atoms: N2_25  and  C23_28 
REMARK    6  A    between atoms: C23_28  and  C24_29 
REMARK    7  A    between atoms: C24_29  and  O4_30 
ROOT
ATOM      1  C9  <0> d   1       3.726  -3.286  -0.051  0.00  0.00     0.078 C 
ATOM      2  C10 <0> d   1       5.086  -3.209  -0.065  0.00  0.00     0.129 A 
ATOM      3  C11 <0> d   1       6.018  -4.343  -0.085  0.00  0.00     0.218 A 
ATOM      4  O2  <0> d   1       5.747  -5.532  -0.094  0.00  0.00    -0.284 OA
ATOM      5  C12 <0> d   1       7.356  -3.723  -0.093  0.00  0.00     0.051 A 
ATOM      6  C13 <0> d   1       8.650  -4.244  -0.112  0.00  0.00     0.021 A 
ATOM      7  C14 <0> d   1       9.724  -3.400  -0.115  0.00  0.00     0.038 A 
ATOM      8  C15 <0> d   1       9.530  -2.021  -0.100  0.00  0.00     0.076 A 
ATOM      9  C16 <0> d   1       8.251  -1.489  -0.081  0.00  0.00     0.038 A 
ATOM     10  C17 <0> d   1       7.147  -2.334  -0.078  0.00  0.00     0.101 A 
ATOM     11  O3  <0> d   1       5.822  -2.073  -0.067  0.00  0.00    -0.305 OA
ENDROOT
BRANCH   9  12
ATOM     12  C18 <0> d   1       8.056   0.005  -0.064  0.00  0.00     0.317 C 
BRANCH  12  13
ATOM     13  N1  <0> d   1       7.978   0.504  -1.444  0.00  0.00     0.096 N 
ATOM     14  C22 <0> d   1       7.554   1.911  -1.472  0.00  0.00     0.303 C 
ATOM     15  C21 <0> d   1       7.409   2.368  -2.925  0.00  0.00     0.302 C 
ATOM     16  N2  <0> d   1       8.691   2.194  -3.621  0.00  0.00     0.093 N 
ATOM     17  C20 <0> d   1       9.115   0.787  -3.593  0.00  0.00     0.302 C 
ATOM     18  C19 <0> d   1       9.261   0.330  -2.140  0.00  0.00     0.303 C 
BRANCH  16  19
ATOM     19  C23 <0> d   1       8.613   2.693  -5.000  0.00  0.00     0.298 C 
BRANCH  19  20
ATOM     20  C24 <0> d   1       8.415   4.210  -4.983  0.00  0.00     0.194 C 
BRANCH  20  21
ATOM     21  O4  <0> d   1       9.570   4.835  -4.420  0.00  0.00    -0.399 OA
ATOM     22  H23 <0> d   1       9.515   5.800  -4.377  0.00  0.00     0.209 HD
ENDBRANCH  20  21
ENDBRANCH  19  20
ENDBRANCH  16  19
ENDBRANCH  12  13
ENDBRANCH   9  12
BRANCH   8  23
ATOM     23  O5  <0> d   1      10.604  -1.190  -0.102  0.00  0.00    -0.360 OA
ATOM     24  H24 <0> d   1      10.906  -0.941  -0.986  0.00  0.00     0.217 HD
ENDBRANCH   8  23
BRANCH   1  25
ATOM     25  C8  <0> d   1       2.950  -2.102  -0.038  0.00  0.00     0.079 A 
ATOM     26  C7  <0> d   1       1.587  -2.053  -0.024  0.00  0.00     0.051 A 
ATOM     27  C5  <0> d   1       1.226  -0.682  -0.013  0.00  0.00     0.000 A 
ATOM     28  C4  <0> d   1       2.431   0.046  -0.021  0.00  0.00     0.086 A 
ATOM     29  C6  <0> d   1       0.002  -0.004   0.002  0.00  0.00     0.014 A 
ATOM     30  C3  <0> d   1       2.387   1.434  -0.013  0.00  0.00     0.038 A 
ATOM     31  O1  <0> d   1       3.444  -0.845  -0.036  0.00  0.00    -0.310 OA
ATOM     32  C2  <0> d   1       1.170   2.082   0.002  0.00  0.00     0.003 A 
ATOM     33  C1  <0> d   1      -0.016   1.362   0.009  0.00  0.00     0.001 A 
ENDBRANCH   1  25
TORSDOF 7
