REMARK  4 active torsions:
REMARK  status: ('A' for Active; 'I' for Inactive)
REMARK    1  A    between atoms: C2_2  and  C3_3 
REMARK    2  A    between atoms: C6_6  and  C12_15 
REMARK    3  A    between atoms: C11_13  and  O3_14 
REMARK    4  A    between atoms: C12_15  and  N1_16 
ROOT
ATOM      1  C3  <0> d   1      -1.412  -0.526   0.013  0.00  0.00    -0.024 A 
ATOM      2  C4  <0> d   1      -1.986  -0.952  -1.150  0.00  0.00     0.024 A 
ATOM      3  C5  <0> d   1      -3.299  -1.437  -1.140  0.00  0.00     0.007 A 
ATOM      4  C6  <0> d   1      -3.940  -1.901  -2.372  0.00  0.00    -0.014 A 
ATOM      5  C7  <0> d   1      -5.216  -2.361  -2.297  0.00  0.00     0.092 A 
ATOM      6  C8  <0> d   1      -5.883  -2.379  -1.055  0.00  0.00     0.288 A 
ATOM      7  O1  <0> d   1      -7.027  -2.793  -1.002  0.00  0.00    -0.260 OA
ATOM      8  O2  <0> d   1      -5.290  -1.952   0.071  0.00  0.00    -0.275 OA
ATOM      9  C9  <0> d   1      -4.024  -1.483   0.066  0.00  0.00     0.093 A 
ATOM     10  C10 <0> d   1      -3.425  -1.046   1.237  0.00  0.00     0.075 A 
ATOM     11  C11 <0> d   1      -2.122  -0.575   1.210  0.00  0.00     0.074 A 
ENDROOT
BRANCH   4  12
ATOM     12  C12 <0> d   1      -3.204  -1.871  -3.687  0.00  0.00     0.274 C 
BRANCH  12  13
ATOM     13  N1  <0> d   1      -3.342  -0.540  -4.293  0.00  0.00    -0.064 N 
ATOM     14  C16 <0> d   1      -2.527  -0.472  -5.514  0.00  0.00     0.265 C 
ATOM     15  C15 <0> d   1      -2.655   0.920  -6.136  0.00  0.00     0.299 C 
ATOM     16  N2  <0> d   1      -4.066   1.184  -6.452  0.00  0.00     0.087 N 
ATOM     17  C14 <0> d   1      -4.897   1.096  -5.244  0.00  0.00     0.299 C 
ATOM     18  C17 <0> d   1      -4.223   2.491  -7.105  0.00  0.00     0.310 C 
ATOM     19  C13 <0> d   1      -4.751  -0.298  -4.629  0.00  0.00     0.265 C 
ATOM     20  H23 <0> d   1      -3.027   0.161  -3.640  0.00  0.00     0.280 HD
ENDBRANCH  12  13
ENDBRANCH   4  12
BRANCH   1  21
ATOM     21  C2  <0> d   1       0.002  -0.004   0.002  0.00  0.00     0.037 C 
ATOM     22  C1  <0> d   1      -0.019   1.526   0.010  0.00  0.00     0.010 C 
ENDBRANCH   1  21
BRANCH  11  23
ATOM     23  O3  <0> d   1      -1.536  -0.152   2.359  0.00  0.00    -0.360 OA
ATOM     24  H9  <0> d   1      -1.668   0.788   2.546  0.00  0.00     0.217 HD
ENDBRANCH  11  23
TORSDOF 4
