REMARK  9 active torsions:
REMARK  status: ('A' for Active; 'I' for Inactive)
REMARK    1  A    between atoms: C3_3  and  O5_24 
REMARK    2  A    between atoms: C8_9  and  O4_23 
REMARK    3  A    between atoms: C9_10  and  C11_13 
REMARK    4  A    between atoms: C11_13  and  N1_14 
REMARK    5  A    between atoms: N2_17  and  C16_20 
REMARK    6  A    between atoms: C16_20  and  C17_21 
REMARK    7  A    between atoms: C17_21  and  O3_22 
REMARK    8  A    between atoms: O5_24  and  C18_25 
REMARK    9  A    between atoms: C21_28  and  O6_31 
ROOT
ATOM      1  C1  <0> d   1      -1.355   2.948  -3.422  0.00  0.00     0.080 C 
ATOM      2  C2  <0> d   1      -1.306   3.480  -2.013  0.00  0.00     0.087 A 
ATOM      3  C3  <0> d   1      -1.335   2.603  -0.990  0.00  0.00     0.156 A 
ATOM      4  C4  <0> d   1      -1.295   3.086   0.350  0.00  0.00     0.221 A 
ATOM      5  O1  <0> d   1      -1.325   2.323   1.301  0.00  0.00    -0.284 OA
ATOM      6  C5  <0> d   1      -1.213   4.544   0.538  0.00  0.00     0.052 A 
ATOM      7  C6  <0> d   1      -1.165   5.111   1.813  0.00  0.00     0.021 A 
ATOM      8  C7  <0> d   1      -1.094   6.468   1.948  0.00  0.00     0.038 A 
ATOM      9  C8  <0> d   1      -1.070   7.288   0.822  0.00  0.00     0.076 A 
ATOM     10  C9  <0> d   1      -1.117   6.742  -0.449  0.00  0.00     0.038 A 
ATOM     11  C10 <0> d   1      -1.189   5.364  -0.604  0.00  0.00     0.101 A 
ATOM     12  O2  <0> d   1      -1.236   4.805  -1.830  0.00  0.00    -0.311 OA
ENDROOT
BRANCH  10  13
ATOM     13  C11 <0> d   1      -1.091   7.638  -1.660  0.00  0.00     0.317 C 
BRANCH  13  14
ATOM     14  N1  <0> d   1      -2.465   8.000  -2.031  0.00  0.00     0.096 N 
ATOM     15  C15 <0> d   1      -2.474   9.056  -3.053  0.00  0.00     0.303 C 
ATOM     16  C14 <0> d   1      -3.920   9.458  -3.354  0.00  0.00     0.302 C 
ATOM     17  N2  <0> d   1      -4.668   8.279  -3.813  0.00  0.00     0.093 N 
ATOM     18  C13 <0> d   1      -4.659   7.223  -2.791  0.00  0.00     0.302 C 
ATOM     19  C12 <0> d   1      -3.214   6.821  -2.490  0.00  0.00     0.303 C 
BRANCH  17  20
ATOM     20  C16 <0> d   1      -6.043   8.640  -4.184  0.00  0.00     0.298 C 
BRANCH  20  21
ATOM     21  C17 <0> d   1      -6.035   9.349  -5.540  0.00  0.00     0.194 C 
BRANCH  21  22
ATOM     22  O3  <0> d   1      -5.589   8.441  -6.550  0.00  0.00    -0.399 OA
ATOM     23  H20 <0> d   1      -5.517   8.774  -7.596  0.00  0.00     0.209 HD
ENDBRANCH  21  22
ENDBRANCH  20  21
ENDBRANCH  17  20
ENDBRANCH  13  14
ENDBRANCH  10  13
BRANCH   9  24
ATOM     24  O4  <0> d   1      -0.999   8.636   0.973  0.00  0.00    -0.360 OA
ATOM     25  H21 <0> d   1      -0.980   9.288   0.087  0.00  0.00     0.217 HD
ENDBRANCH   9  24
BRANCH   3  26
ATOM     26  O5  <0> d   1      -1.407   1.266  -1.235  0.00  0.00    -0.304 OA
BRANCH  26  27
ATOM     27  C18 <0> d   1      -0.242   0.578  -1.368  0.00  0.00     0.076 A 
ATOM     28  C23 <0> d   1      -0.268  -0.786  -1.619  0.00  0.00     0.040 A 
ATOM     29  C22 <0> d   1       0.916  -1.484  -1.760  0.00  0.00     0.039 A 
ATOM     30  C21 <0> d   1       2.129  -0.821  -1.652  0.00  0.00     0.068 A 
ATOM     31  C20 <0> d   1       2.155   0.543  -1.402  0.00  0.00     0.039 A 
ATOM     32  C19 <0> d   1       0.971   1.241  -1.260  0.00  0.00     0.040 A 
BRANCH  30  33
ATOM     33  O6  <0> d   1       3.294  -1.508  -1.791  0.00  0.00    -0.356 OA
ATOM     34  C24 <0> d   1       4.507  -0.762  -1.668  0.00  0.00     0.210 C 
ENDBRANCH  30  33
ENDBRANCH  26  27
ENDBRANCH   3  26
TORSDOF 9
