REMARK  5 active torsions:
REMARK  status: ('A' for Active; 'I' for Inactive)
REMARK    1  A    between atoms: C3_3  and  O4_22 
REMARK    2  A    between atoms: C8_9  and  O3_21 
REMARK    3  A    between atoms: C9_10  and  C11_13 
REMARK    4  A    between atoms: C11_13  and  N1_14 
REMARK    5  A    between atoms: O4_22  and  C17_23 
ROOT
ATOM      1  C1  <0> d   1      -4.840   1.311   0.032  0.00  0.00     0.080 C 
ATOM      2  C2  <0> d   1      -3.583   2.142   0.030  0.00  0.00     0.087 A 
ATOM      3  C3  <0> d   1      -3.697   3.485   0.037  0.00  0.00     0.156 A 
ATOM      4  C4  <0> d   1      -2.522   4.289   0.048  0.00  0.00     0.221 A 
ATOM      5  O1  <0> d   1      -2.586   5.507   0.054  0.00  0.00    -0.284 OA
ATOM      6  C5  <0> d   1      -1.226   3.589   0.032  0.00  0.00     0.052 A 
ATOM      7  C6  <0> d   1      -0.020   4.292   0.024  0.00  0.00     0.021 A 
ATOM      8  C7  <0> d   1       1.162   3.607   0.010  0.00  0.00     0.038 A 
ATOM      9  C8  <0> d   1       1.169   2.214   0.003  0.00  0.00     0.076 A 
ATOM     10  C9  <0> d   1      -0.018   1.503   0.010  0.00  0.00     0.038 A 
ATOM     11  C10 <0> d   1      -1.228   2.183   0.020  0.00  0.00     0.101 A 
ATOM     12  O2  <0> d   1      -2.399   1.515   0.022  0.00  0.00    -0.311 OA
ENDROOT
BRANCH   3  13
ATOM     13  O4  <0> d   1      -4.927   4.068   0.045  0.00  0.00    -0.303 OA
BRANCH  13  14
ATOM     14  C17 <0> d   1      -5.498   4.336   1.249  0.00  0.00     0.093 A 
ATOM     15  C22 <0> d   1      -6.751   4.930   1.307  0.00  0.00     0.044 A 
ATOM     16  C21 <0> d   1      -7.330   5.201   2.533  0.00  0.00     0.022 A 
ATOM     17 Br1  <0> d   1      -7.666   5.370  -0.289  0.00  0.00    -0.048 Br
ATOM     18  C20 <0> d   1      -6.662   4.880   3.700  0.00  0.00     0.002 A 
ATOM     19  C19 <0> d   1      -5.413   4.288   3.644  0.00  0.00     0.003 A 
ATOM     20  C18 <0> d   1      -4.832   4.011   2.422  0.00  0.00     0.039 A 
ENDBRANCH  13  14
ENDBRANCH   3  13
BRANCH  10  21
ATOM     21  C11 <0> d   1       0.002  -0.004   0.002  0.00  0.00     0.317 C 
BRANCH  21  22
ATOM     22  N1  <0> d   1       0.022  -0.501   1.384  0.00  0.00     0.096 N 
ATOM     23  C15 <0> d   1      -0.196  -1.954   1.425  0.00  0.00     0.303 C 
ATOM     24  C14 <0> d   1      -0.248  -2.419   2.882  0.00  0.00     0.302 C 
ATOM     25  N2  <0> d   1       1.009  -2.059   3.553  0.00  0.00     0.087 N 
ATOM     26  C13 <0> d   1       1.227  -0.606   3.513  0.00  0.00     0.302 C 
ATOM     27  C16 <0> d   1       1.029  -2.556   4.935  0.00  0.00     0.310 C 
ATOM     28  C12 <0> d   1       1.279  -0.141   2.055  0.00  0.00     0.303 C 
ENDBRANCH  21  22
ENDBRANCH  10  21
BRANCH   9  29
ATOM     29  O3  <0> d   1       2.352   1.548  -0.011  0.00  0.00    -0.360 OA
ATOM     30  H19 <0> d   1       2.364   0.448  -0.017  0.00  0.00     0.217 HD
ENDBRANCH   9  29
TORSDOF 5
