REMARK  6 active torsions:
REMARK  status: ('A' for Active; 'I' for Inactive)
REMARK    1  A    between atoms: O1_2  and  C2_3 
REMARK    2  A    between atoms: C5_6  and  C9_11 
REMARK    3  A    between atoms: C7_8  and  O2_9 
REMARK    4  A    between atoms: C17_21  and  C18_22 
REMARK    5  A    between atoms: C18_22  and  N1_23 
REMARK    6  A    between atoms: C23_28  and  C24_29 
ROOT
ATOM      1  C9  <0> d   1      -2.384  -2.498   2.939  0.00  0.00     0.048 A 
ATOM      2  C10 <0> d   1      -1.911  -2.449   1.667  0.00  0.00     0.159 A 
ATOM      3  O3  <0> d   1      -1.203  -1.416   1.203  0.00  0.00    -0.320 OA
ATOM      4  C11 <0> d   1      -0.894  -0.337   1.948  0.00  0.00     0.100 A 
ATOM      5  C12 <0> d   1      -1.319  -0.253   3.286  0.00  0.00     0.050 A 
ATOM      6  C13 <0> d   1      -2.104  -1.369   3.842  0.00  0.00     0.197 A 
ATOM      7  O4  <0> d   1      -2.504  -1.358   4.994  0.00  0.00    -0.286 OA
ATOM      8  C14 <0> d   1      -1.001   0.865   4.059  0.00  0.00     0.021 A 
ATOM      9  C15 <0> d   1      -0.273   1.882   3.512  0.00  0.00     0.041 A 
ATOM     10  C16 <0> d   1       0.159   1.806   2.189  0.00  0.00     0.118 A 
ATOM     11  C17 <0> d   1      -0.154   0.707   1.408  0.00  0.00     0.039 A 
ATOM     12  O5  <0> d   1       0.887   2.822   1.660  0.00  0.00    -0.191 OA
ENDROOT
BRANCH  11  13
ATOM     13  C18 <0> d   1       0.313   0.639  -0.023  0.00  0.00     0.280 C 
BRANCH  13  14
ATOM     14  N1  <0> d   1      -0.631   1.367  -0.881  0.00  0.00    -0.059 N 
ATOM     15  C23 <0> d   1      -0.152   1.417  -2.268  0.00  0.00     0.223 C 
ATOM     16  C22 <0> d   1      -1.083   2.302  -3.100  0.00  0.00     0.038 C 
ATOM     17  C21 <0> d   1      -2.502   1.729  -3.051  0.00  0.00     0.004 C 
ATOM     18  C20 <0> d   1      -2.959   1.643  -1.593  0.00  0.00     0.028 C 
ATOM     19  C19 <0> d   1      -1.974   0.777  -0.805  0.00  0.00     0.236 C 
ATOM     20  H28 <0> d   1      -0.698   2.401  -0.513  0.00  0.00     0.281 HD
BRANCH  15  21
ATOM     21  C24 <0> d   1       1.243   1.987  -2.297  0.00  0.00    -0.010 A 
ATOM     22  C28 <0> d   1       1.541   3.140  -1.596  0.00  0.00     0.125 A 
ATOM     23  N2  <0> d   1       2.761   3.642  -1.612  0.00  0.00    -0.273 NA
ATOM     24  C27 <0> d   1       3.734   3.078  -2.300  0.00  0.00     0.116 A 
ATOM     25  C26 <0> d   1       3.509   1.927  -3.030  0.00  0.00     0.020 A 
ATOM     26  C25 <0> d   1       2.241   1.366  -3.033  0.00  0.00     0.012 A 
ENDBRANCH  15  21
ENDBRANCH  13  14
ENDBRANCH  11  13
BRANCH   1  27
ATOM     27  C5  <0> d   1      -3.168  -3.667   3.409  0.00  0.00    -0.017 A 
ATOM     28  C4  <0> d   1      -2.828  -4.300   4.603  0.00  0.00     0.015 A 
ATOM     29  C3  <0> d   1      -3.557  -5.387   5.041  0.00  0.00     0.040 A 
ATOM     30  C2  <0> d   1      -4.629  -5.851   4.294  0.00  0.00     0.101 A 
ATOM     31  C7  <0> d   1      -4.974  -5.222   3.101  0.00  0.00     0.102 A 
ATOM     32  C6  <0> d   1      -4.249  -4.129   2.661  0.00  0.00     0.052 A 
BRANCH  30  33
ATOM     33  O1  <0> d   1      -5.346  -6.923   4.729  0.00  0.00    -0.353 OA
ATOM     34  C1  <0> d   1      -4.938  -7.519   5.961  0.00  0.00     0.210 C 
ENDBRANCH  30  33
BRANCH  31  35
ATOM     35  O2  <0> d   1      -6.026  -5.679   2.370  0.00  0.00    -0.353 OA
ATOM     36  C8  <0> d   1      -6.323  -4.986   1.157  0.00  0.00     0.210 C 
ENDBRANCH  31  35
ENDBRANCH   1  27
TORSDOF 6
