REMARK  5 active torsions:
REMARK  status: ('A' for Active; 'I' for Inactive)
REMARK    1  A    between atoms: C4_4  and  C7_7 
REMARK    2  A    between atoms: C15_17  and  C16_18 
REMARK    3  A    between atoms: N1_23  and  C19_26 
REMARK    4  A    between atoms: C19_26  and  C20_27 
REMARK    5  A    between atoms: C20_27  and  N2_28 
ROOT
ATOM      1  C7  <0> d   1       4.588  -7.739   6.514  0.00  0.00     0.064 A 
ATOM      2  C8  <0> d   1       3.398  -8.503   6.099  0.00  0.00     0.198 A 
ATOM      3  O1  <0> d   1       3.071  -9.537   6.655  0.00  0.00    -0.286 OA
ATOM      4  C9  <0> d   1       2.625  -7.946   4.973  0.00  0.00     0.050 A 
ATOM      5  C10 <0> d   1       1.480  -8.587   4.498  0.00  0.00     0.021 A 
ATOM      6  C11 <0> d   1       0.785  -8.047   3.455  0.00  0.00     0.038 A 
ATOM      7  C12 <0> d   1       1.214  -6.859   2.860  0.00  0.00     0.082 A 
ATOM      8  C13 <0> d   1       2.345  -6.213   3.322  0.00  0.00     0.038 A 
ATOM      9  C14 <0> d   1       3.067  -6.750   4.385  0.00  0.00     0.101 A 
ATOM     10  O2  <0> d   1       4.169  -6.122   4.834  0.00  0.00    -0.303 OA
ATOM     11  C15 <0> d   1       4.889  -6.597   5.846  0.00  0.00     0.174 A 
ATOM     12  C17 <0> d   1       2.816  -4.928   2.690  0.00  0.00     0.319 C 
ATOM     13  N1  <0> d   1       2.186  -4.767   1.372  0.00  0.00     0.117 N 
ATOM     14  C18 <0> d   1       0.733  -4.984   1.475  0.00  0.00     0.447 C 
ATOM     15  O3  <0> d   1       0.501  -6.352   1.820  0.00  0.00    -0.321 OA
ENDROOT
BRANCH  13  16
ATOM     16  C19 <0> d   1       2.482  -3.445   0.805  0.00  0.00     0.305 C 
BRANCH  16  17
ATOM     17  C20 <0> d   1       2.028  -3.403  -0.656  0.00  0.00     0.302 C 
BRANCH  17  18
ATOM     18  N2  <0> d   1       2.323  -2.080  -1.222  0.00  0.00     0.094 N 
ATOM     19  C24 <0> d   1       3.774  -1.855  -1.307  0.00  0.00     0.298 C 
ATOM     20  C23 <0> d   1       4.036  -0.447  -1.846  0.00  0.00     0.198 C 
ATOM     21  O4  <0> d   1       3.390  -0.298  -3.113  0.00  0.00    -0.388 OA
ATOM     22  C22 <0> d   1       1.976  -0.510  -3.067  0.00  0.00     0.198 C 
ATOM     23  C21 <0> d   1       1.693  -1.919  -2.541  0.00  0.00     0.298 C 
ENDBRANCH  17  18
ENDBRANCH  16  17
ENDBRANCH  13  16
BRANCH  11  24
ATOM     24  C16 <0> d   1       6.108  -5.822   6.277  0.00  0.00     0.440 C 
ATOM     25  F1  <0> d   1       7.213  -6.678   6.321  0.00  0.00    -0.164 F 
ATOM     26  F2  <0> d   1       6.352  -4.792   5.362  0.00  0.00    -0.164 F 
ATOM     27  F3  <0> d   1       5.889  -5.277   7.546  0.00  0.00    -0.164 F 
ENDBRANCH  11  24
BRANCH   1  28
ATOM     28  C4  <0> d   1       5.438  -8.208   7.635  0.00  0.00    -0.019 A 
ATOM     29  C3  <0> d   1       6.234  -9.342   7.483  0.00  0.00     0.012 A 
ATOM     30  C2  <0> d   1       7.022  -9.774   8.530  0.00  0.00     0.001 A 
ATOM     31  C1  <0> d   1       7.024  -9.084   9.729  0.00  0.00     0.000 A 
ATOM     32  C6  <0> d   1       6.236  -7.958   9.886  0.00  0.00     0.001 A 
ATOM     33  C5  <0> d   1       5.447  -7.514   8.844  0.00  0.00     0.012 A 
ENDBRANCH   1  28
TORSDOF 5
