REMARK  6 active torsions:
REMARK  status: ('A' for Active; 'I' for Inactive)
REMARK    1  A    between atoms: C4_4  and  O5_37 
REMARK    2  A    between atoms: C5_5  and  C17_20 
REMARK    3  A    between atoms: C10_11  and  C11_12 
REMARK    4  A    between atoms: C17_20  and  N1_21 
REMARK    5  A    between atoms: N2_24  and  C22_27 
REMARK    6  A    between atoms: C22_27  and  C23_28 
ROOT
ATOM      1  C1  <0> d   1      -0.085   1.509   0.016  0.00  0.00     0.049 C 
ATOM      2  C2  <0> d   1      -0.072   0.002   0.006  0.00  0.00    -0.042 A 
ATOM      3  C3  <0> d   1      -0.093  -0.674  -1.181  0.00  0.00     0.045 A 
ATOM      4  C4  <0> d   1      -0.081  -2.066  -1.193  0.00  0.00     0.077 A 
ATOM      5  C5  <0> d   1      -0.049  -2.781  -0.007  0.00  0.00     0.038 A 
ATOM      6  C6  <0> d   1      -0.027  -2.109   1.209  0.00  0.00     0.102 A 
ATOM      7  C7  <0> d   1      -0.034  -0.705   1.208  0.00  0.00     0.057 A 
ATOM      8  C8  <0> d   1      -0.000  -0.288   2.622  0.00  0.00     0.219 A 
ATOM      9  O1  <0> d   1       0.001   0.847   3.065  0.00  0.00    -0.284 OA
ATOM     10  C9  <0> d   1       0.031  -1.550   3.377  0.00  0.00     0.128 A 
ATOM     11  C10 <0> d   1       0.068  -1.675   4.728  0.00  0.00     0.053 C 
ATOM     12  O2  <0> d   1       0.005  -2.564   2.480  0.00  0.00    -0.305 OA
ENDROOT
BRANCH   5  13
ATOM     13  C17 <0> d   1      -0.037  -4.288  -0.035  0.00  0.00     0.317 C 
BRANCH  13  14
ATOM     14  N1  <0> d   1       1.351  -4.766  -0.075  0.00  0.00     0.096 N 
ATOM     15  C21 <0> d   1       1.403  -6.210  -0.341  0.00  0.00     0.303 C 
ATOM     16  C20 <0> d   1       2.864  -6.653  -0.454  0.00  0.00     0.303 C 
ATOM     17  N2  <0> d   1       3.571  -6.325   0.792  0.00  0.00     0.096 N 
ATOM     18  C19 <0> d   1       3.519  -4.880   1.058  0.00  0.00     0.303 C 
ATOM     19  C18 <0> d   1       2.058  -4.437   1.171  0.00  0.00     0.303 C 
BRANCH  17  20
ATOM     20  C22 <0> d   1       4.959  -6.803   0.752  0.00  0.00     0.311 C 
BRANCH  20  21
ATOM     21  C23 <0> d   1       4.971  -8.310   0.723  0.00  0.00    -0.027 A 
ATOM     22  C28 <0> d   1       4.949  -8.977  -0.487  0.00  0.00     0.048 A 
ATOM     23  C27 <0> d   1       4.965 -10.362  -0.515  0.00  0.00     0.105 A 
ATOM     24  C26 <0> d   1       4.992 -11.079   0.678  0.00  0.00     0.105 A 
ATOM     25  O3  <0> d   1       4.954 -11.246  -1.556  0.00  0.00    -0.323 OA
ATOM     26  C25 <0> d   1       5.007 -10.404   1.888  0.00  0.00     0.040 A 
ATOM     27  O4  <0> d   1       4.997 -12.413   0.386  0.00  0.00    -0.323 OA
ATOM     28  C24 <0> d   1       4.997  -9.021   1.908  0.00  0.00     0.012 A 
ATOM     29  C29 <0> d   1       5.386 -12.501  -0.998  0.00  0.00     0.352 C 
ENDBRANCH  20  21
ENDBRANCH  17  20
ENDBRANCH  13  14
ENDBRANCH   5  13
BRANCH   4  30
ATOM     30  O5  <0> d   1      -0.102  -2.729  -2.378  0.00  0.00    -0.360 OA
ATOM     31  H27 <0> d   1       0.775  -2.913  -2.741  0.00  0.00     0.217 HD
ENDBRANCH   4  30
BRANCH  11  32
ATOM     32  C11 <0> d   1      -0.019  -3.005   5.345  0.00  0.00    -0.033 A 
ATOM     33  C16 <0> d   1      -0.010  -4.154   4.544  0.00  0.00     0.014 A 
ATOM     34  C15 <0> d   1      -0.086  -5.398   5.130  0.00  0.00     0.043 A 
ATOM     35  C14 <0> d   1      -0.182  -5.515   6.509  0.00  0.00     0.116 A 
ATOM     36  C13 <0> d   1      -0.197  -4.381   7.308  0.00  0.00     0.043 A 
ATOM     37  F1  <0> d   1      -0.262  -6.738   7.076  0.00  0.00    -0.206 F 
ATOM     38  C12 <0> d   1      -0.116  -3.130   6.736  0.00  0.00     0.014 A 
ENDBRANCH  11  32
TORSDOF 6
