REMARK  5 active torsions:
REMARK  status: ('A' for Active; 'I' for Inactive)
REMARK    1  A    between atoms: C9_10  and  C10_11 
REMARK    2  A    between atoms: C13_14  and  O3_19 
REMARK    3  A    between atoms: C14_15  and  O2_17 
REMARK    4  A    between atoms: N1_24  and  C21_27 
REMARK    5  A    between atoms: C21_27  and  C22_28 
ROOT
ATOM      1  C1  <0> d   1      -2.517   6.656  -5.794  0.00  0.00     0.054 C 
ATOM      2  C2  <0> d   1      -1.117   6.291  -5.372  0.00  0.00     0.007 A 
ATOM      3  C3  <0> d   1      -0.863   5.938  -4.053  0.00  0.00     0.087 A 
ATOM      4  C4  <0> d   1       0.425   5.597  -3.652  0.00  0.00     0.005 A 
ATOM      5  C5  <0> d   1       1.452   5.610  -4.557  0.00  0.00     0.030 A 
ATOM      6  C6  <0> d   1       1.209   5.963  -5.884  0.00  0.00     0.052 A 
ATOM      7  C7  <0> d   1      -0.087   6.307  -6.302  0.00  0.00     0.099 A 
ATOM      8  O1  <0> d   1      -0.075   6.609  -7.619  0.00  0.00    -0.305 OA
ATOM      9  C8  <0> d   1       1.165   6.495  -8.150  0.00  0.00     0.127 A 
ATOM     10  C9  <0> d   1       1.507   6.728  -9.443  0.00  0.00     0.053 C 
ATOM     11  C18 <0> d   1       2.072   6.074  -7.074  0.00  0.00     0.218 A 
ATOM     12  O4  <0> d   1       3.271   5.862  -7.148  0.00  0.00    -0.284 OA
ATOM     13  C19 <0> d   1       0.711   5.209  -2.223  0.00  0.00     0.317 C 
ATOM     14  N1  <0> d   1      -0.395   5.654  -1.363  0.00  0.00     0.121 N 
ATOM     15  C20 <0> d   1      -1.684   5.231  -1.935  0.00  0.00     0.448 C 
ATOM     16  O5  <0> d   1      -1.890   5.931  -3.164  0.00  0.00    -0.320 OA
ENDROOT
BRANCH  10  17
ATOM     17  C10 <0> d   1       0.468   7.032 -10.434  0.00  0.00    -0.031 A 
ATOM     18  C15 <0> d   1       0.802   7.147 -11.790  0.00  0.00     0.051 A 
ATOM     19  C14 <0> d   1      -0.180   7.433 -12.717  0.00  0.00     0.102 A 
ATOM     20  C13 <0> d   1      -1.500   7.608 -12.304  0.00  0.00     0.101 A 
ATOM     21  C12 <0> d   1      -1.833   7.494 -10.960  0.00  0.00     0.040 A 
ATOM     22  C11 <0> d   1      -0.861   7.204 -10.028  0.00  0.00     0.014 A 
BRANCH  19  23
ATOM     23  O2  <0> d   1       0.141   7.545 -14.034  0.00  0.00    -0.353 OA
ATOM     24  C16 <0> d   1       1.512   7.354 -14.386  0.00  0.00     0.210 C 
ENDBRANCH  19  23
BRANCH  20  25
ATOM     25  O3  <0> d   1      -2.464   7.889 -13.218  0.00  0.00    -0.353 OA
ATOM     26  C17 <0> d   1      -3.796   8.056 -12.727  0.00  0.00     0.210 C 
ENDBRANCH  20  25
ENDBRANCH  10  17
BRANCH  14  27
ATOM     27  C21 <0> d   1      -0.234   5.145   0.006  0.00  0.00     0.334 C 
BRANCH  27  28
ATOM     28  C22 <0> d   1      -0.137   3.642  -0.025  0.00  0.00     0.062 A 
ATOM     29  N2  <0> d   1      -1.238   2.917  -0.033  0.00  0.00    -0.264 NA
ATOM     30  C26 <0> d   1      -1.202   1.599  -0.065  0.00  0.00     0.117 A 
ATOM     31  C25 <0> d   1       0.005   0.926  -0.080  0.00  0.00     0.019 A 
ATOM     32  C24 <0> d   1       1.185   1.654  -0.074  0.00  0.00     0.003 A 
ATOM     33  C23 <0> d   1       1.107   3.038  -0.045  0.00  0.00     0.029 A 
ENDBRANCH  27  28
ENDBRANCH  14  27
TORSDOF 5
