REMARK  5 active torsions:
REMARK  status: ('A' for Active; 'I' for Inactive)
REMARK    1  A    between atoms: C2_2  and  N1_3 
REMARK    2  A    between atoms: N2_6  and  C7_9 
REMARK    3  A    between atoms: C7_9  and  C8_10 
REMARK    4  A    between atoms: C9_11  and  O3_29 
REMARK    5  A    between atoms: C15_18  and  C16_19 
ROOT
ATOM      1  C8  <0> d   1       3.437   3.501   1.490  0.00  0.00     0.038 A 
ATOM      2  C9  <0> d   1       3.390   4.384   0.423  0.00  0.00     0.076 A 
ATOM      3  C10 <0> d   1       3.327   5.757   0.643  0.00  0.00     0.038 A 
ATOM      4  C11 <0> d   1       3.319   6.248   1.918  0.00  0.00     0.021 A 
ATOM      5  C12 <0> d   1       3.370   5.371   3.002  0.00  0.00     0.051 A 
ATOM      6  C13 <0> d   1       3.430   3.983   2.792  0.00  0.00     0.101 A 
ATOM      7  O1  <0> d   1       3.472   3.345   3.982  0.00  0.00    -0.305 OA
ATOM      8  C14 <0> d   1       3.445   4.213   5.021  0.00  0.00     0.128 A 
ATOM      9  C15 <0> d   1       3.474   3.888   6.338  0.00  0.00     0.057 C 
ATOM     10  C22 <0> d   1       3.378   5.572   4.462  0.00  0.00     0.218 A 
ATOM     11  O2  <0> d   1       3.338   6.627   5.071  0.00  0.00    -0.284 OA
ENDROOT
BRANCH   1  12
ATOM     12  C7  <0> d   1       3.501   2.017   1.237  0.00  0.00     0.317 C 
BRANCH  12  13
ATOM     13  N2  <0> d   1       2.138   1.472   1.171  0.00  0.00     0.096 N 
ATOM     14  C4  <0> d   1       1.419   1.992  -0.001  0.00  0.00     0.303 C 
ATOM     15  C3  <0> d   1      -0.018   1.465   0.010  0.00  0.00     0.302 C 
ATOM     16  N1  <0> d   1       0.002  -0.004   0.002  0.00  0.00     0.091 N 
ATOM     17  C6  <0> d   1       0.721  -0.525   1.173  0.00  0.00     0.302 C 
ATOM     18  C5  <0> d   1       2.158   0.003   1.162  0.00  0.00     0.303 C 
BRANCH  16  19
ATOM     19  C2  <0> d   1      -1.361  -0.549  -0.064  0.00  0.00     0.268 C 
ATOM     20  C1  <0> d   1      -1.296  -2.055  -0.321  0.00  0.00     0.037 C 
ENDBRANCH  16  19
ENDBRANCH  12  13
ENDBRANCH   1  12
BRANCH   2  21
ATOM     21  O3  <0> d   1       3.403   3.906  -0.847  0.00  0.00    -0.360 OA
ATOM     22  H22 <0> d   1       3.366   4.603  -1.697  0.00  0.00     0.217 HD
ENDBRANCH   2  21
BRANCH   9  23
ATOM     23  C16 <0> d   1       3.542   2.479   6.745  0.00  0.00     0.027 A 
ATOM     24  C21 <0> d   1       2.646   1.546   6.208  0.00  0.00     0.047 A 
ATOM     25  C20 <0> d   1       2.721   0.223   6.592  0.00  0.00     0.025 A 
ATOM     26 Cl1  <0> d   1       1.449   2.052   5.056  0.00  0.00    -0.083 Cl
ATOM     27  C19 <0> d   1       3.670  -0.182   7.514  0.00  0.00     0.005 A 
ATOM     28  C18 <0> d   1       4.556   0.732   8.056  0.00  0.00     0.043 A 
ATOM     29  C17 <0> d   1       4.501   2.060   7.679  0.00  0.00     0.128 A 
ATOM     30  F1  <0> d   1       5.367   2.951   8.209  0.00  0.00    -0.205 F 
ENDBRANCH   9  23
TORSDOF 5
