REMARK  8 active torsions:
REMARK  status: ('A' for Active; 'I' for Inactive)
REMARK    1  A    between atoms: O1_2  and  C2_3 
REMARK    2  A    between atoms: C5_6  and  N1_9 
REMARK    3  A    between atoms: N2_12  and  C12_15 
REMARK    4  A    between atoms: C12_15  and  C13_16 
REMARK    5  A    between atoms: C14_17  and  O6_37 
REMARK    6  A    between atoms: C20_24  and  C21_25 
REMARK    7  A    between atoms: C25_29  and  O4_33 
REMARK    8  A    between atoms: C26_30  and  O3_31 
ROOT
ATOM      1  C13 <0> d   1       7.835  -6.293   6.361  0.00  0.00     0.036 A 
ATOM      2  C14 <0> d   1       7.857  -6.655   7.698  0.00  0.00     0.076 A 
ATOM      3  C15 <0> d   1       7.270  -7.845   8.120  0.00  0.00     0.038 A 
ATOM      4  C16 <0> d   1       6.664  -8.670   7.215  0.00  0.00     0.021 A 
ATOM      5  C17 <0> d   1       6.634  -8.318   5.865  0.00  0.00     0.051 A 
ATOM      6  C18 <0> d   1       7.218  -7.118   5.428  0.00  0.00     0.101 A 
ATOM      7  O2  <0> d   1       7.057  -6.993   4.093  0.00  0.00    -0.305 OA
ATOM      8  C19 <0> d   1       6.384  -8.043   3.566  0.00  0.00     0.128 A 
ATOM      9  C20 <0> d   1       6.064  -8.216   2.258  0.00  0.00     0.055 C 
ATOM     10  C29 <0> d   1       6.076  -8.969   4.665  0.00  0.00     0.218 A 
ATOM     11  O5  <0> d   1       5.480 -10.030   4.602  0.00  0.00    -0.284 OA
ENDROOT
BRANCH   1  12
ATOM     12  C12 <0> d   1       8.475  -5.003   5.918  0.00  0.00     0.279 C 
BRANCH  12  13
ATOM     13  N2  <0> d   1       7.485  -3.919   5.980  0.00  0.00    -0.064 N 
ATOM     14  C9  <0> d   1       8.138  -2.643   5.665  0.00  0.00     0.255 C 
ATOM     15  C8  <0> d   1       7.134  -1.499   5.841  0.00  0.00     0.150 C 
ATOM     16  N1  <0> d   1       5.946  -1.791   5.024  0.00  0.00    -0.378 N 
ATOM     17  C11 <0> d   1       5.318  -3.114   5.162  0.00  0.00     0.150 C 
ATOM     18  C10 <0> d   1       6.411  -4.184   5.014  0.00  0.00     0.255 C 
ATOM     19  H31 <0> d   1       7.095  -3.876   6.910  0.00  0.00     0.280 HD
BRANCH  16  20
ATOM     20  C5  <0> d   1       5.425  -0.835   4.144  0.00  0.00     0.030 A 
ATOM     21  C4  <0> d   1       4.370  -1.166   3.304  0.00  0.00     0.032 A 
ATOM     22  C3  <0> d   1       3.857  -0.223   2.437  0.00  0.00     0.039 A 
ATOM     23  C2  <0> d   1       4.394   1.056   2.405  0.00  0.00     0.068 A 
ATOM     24  C7  <0> d   1       5.451   1.386   3.239  0.00  0.00     0.039 A 
ATOM     25  C6  <0> d   1       5.963   0.445   4.111  0.00  0.00     0.032 A 
BRANCH  23  26
ATOM     26  O1  <0> d   1       3.887   1.985   1.550  0.00  0.00    -0.356 OA
ATOM     27  C1  <0> d   1       2.799   1.576   0.719  0.00  0.00     0.210 C 
ENDBRANCH  23  26
ENDBRANCH  16  20
ENDBRANCH  12  13
ENDBRANCH   1  12
BRANCH   2  28
ATOM     28  O6  <0> d   1       8.458  -5.843   8.605  0.00  0.00    -0.360 OA
ATOM     29  H30 <0> d   1       7.867  -5.184   8.995  0.00  0.00     0.217 HD
ENDBRANCH   2  28
BRANCH   9  30
ATOM     30  C21 <0> d   1       6.327  -7.144   1.291  0.00  0.00     0.003 A 
ATOM     31  C26 <0> d   1       6.351  -7.425  -0.084  0.00  0.00     0.111 A 
ATOM     32  C25 <0> d   1       6.596  -6.400  -0.991  0.00  0.00     0.102 A 
ATOM     33  C24 <0> d   1       6.826  -5.112  -0.535  0.00  0.00     0.040 A 
ATOM     34  C23 <0> d   1       6.807  -4.834   0.822  0.00  0.00     0.004 A 
ATOM     35  C22 <0> d   1       6.560  -5.836   1.734  0.00  0.00     0.014 A 
BRANCH  31  36
ATOM     36  O3  <0> d   1       6.131  -8.690  -0.527  0.00  0.00    -0.352 OA
ATOM     37  C27 <0> d   1       4.778  -9.052  -0.810  0.00  0.00     0.210 C 
ENDBRANCH  31  36
BRANCH  32  38
ATOM     38  O4  <0> d   1       6.616  -6.662  -2.325  0.00  0.00    -0.353 OA
ATOM     39  C28 <0> d   1       6.879  -5.563  -3.199  0.00  0.00     0.210 C 
ENDBRANCH  32  38
ENDBRANCH   9  30
TORSDOF 8
