REMARK  4 active torsions:
REMARK  status: ('A' for Active; 'I' for Inactive)
REMARK    1  A    between atoms: N1_6  and  C7_8 
REMARK    2  A    between atoms: C7_8  and  C8_9 
REMARK    3  A    between atoms: C14_16  and  C23_26 
REMARK    4  A    between atoms: C15_17  and  C17_20 
ROOT
ATOM      1  C8  <0> d   1       1.390  -1.798   1.132  0.00  0.00     0.039 A 
ATOM      2  C9  <0> d   1       0.263  -2.598   1.207  0.00  0.00     0.118 A 
ATOM      3  C10 <0> d   1      -0.962  -2.145   0.723  0.00  0.00     0.041 A 
ATOM      4  C11 <0> d   1      -1.067  -0.902   0.168  0.00  0.00     0.021 A 
ATOM      5  C12 <0> d   1       0.060  -0.083   0.086  0.00  0.00     0.050 A 
ATOM      6  C13 <0> d   1       1.302  -0.531   0.570  0.00  0.00     0.101 A 
ATOM      7  O1  <0> d   1       2.389   0.261   0.489  0.00  0.00    -0.303 OA
ATOM      8  C14 <0> d   1       2.365   1.487  -0.040  0.00  0.00     0.174 A 
ATOM      9  C15 <0> d   1       1.234   2.043  -0.545  0.00  0.00     0.064 A 
ATOM     10  C16 <0> d   1      -0.015   1.264  -0.507  0.00  0.00     0.198 A 
ATOM     11  O2  <0> d   1      -1.060   1.710  -0.950  0.00  0.00    -0.286 OA
ATOM     12  O3  <0> d   1       0.353  -3.836   1.757  0.00  0.00    -0.191 OA
ENDROOT
BRANCH   1  13
ATOM     13  C7  <0> d   1       2.710  -2.300   1.659  0.00  0.00     0.279 C 
BRANCH  13  14
ATOM     14  N1  <0> d   1       3.434  -2.994   0.586  0.00  0.00    -0.067 N 
ATOM     15  C5  <0> d   1       2.727  -4.215   0.179  0.00  0.00     0.235 C 
ATOM     16  C4  <0> d   1       3.428  -4.833  -1.032  0.00  0.00     0.028 C 
ATOM     17  C3  <0> d   1       4.878  -5.159  -0.666  0.00  0.00     0.007 C 
ATOM     18  C2  <0> d   1       5.578  -3.879  -0.200  0.00  0.00     0.007 C 
ATOM     19  C1  <0> d   1       7.011  -4.205   0.226  0.00  0.00     0.011 C 
ATOM     20  C6  <0> d   1       4.815  -3.289   0.988  0.00  0.00     0.239 C 
ATOM     21  H22 <0> d   1       3.474  -2.324  -0.285  0.00  0.00     0.280 HD
ENDBRANCH  13  14
ENDBRANCH   1  13
BRANCH   8  22
ATOM     22  C23 <0> d   1       3.644   2.283  -0.078  0.00  0.00     0.440 C 
ATOM     23  F1  <0> d   1       3.423   3.547   0.480  0.00  0.00    -0.164 F 
ATOM     24  F2  <0> d   1       4.631   1.616   0.655  0.00  0.00    -0.164 F 
ATOM     25  F3  <0> d   1       4.065   2.426  -1.405  0.00  0.00    -0.164 F 
ENDBRANCH   8  22
BRANCH   9  26
ATOM     26  C17 <0> d   1       1.257   3.409  -1.123  0.00  0.00    -0.019 A 
ATOM     27  C22 <0> d   1       0.633   4.461  -0.455  0.00  0.00     0.012 A 
ATOM     28  C21 <0> d   1       0.657   5.730  -0.998  0.00  0.00     0.001 A 
ATOM     29  C20 <0> d   1       1.300   5.958  -2.201  0.00  0.00     0.000 A 
ATOM     30  C19 <0> d   1       1.920   4.918  -2.868  0.00  0.00     0.001 A 
ATOM     31  C18 <0> d   1       1.907   3.646  -2.333  0.00  0.00     0.012 A 
ENDBRANCH   9  26
TORSDOF 4
