REMARK  7 active torsions:
REMARK  status: ('A' for Active; 'I' for Inactive)
REMARK    1  A    between atoms: C6_6  and  O5_23 
REMARK    2  A    between atoms: C10_12  and  C11_13 
REMARK    3  A    between atoms: C14_16  and  O4_21 
REMARK    4  A    between atoms: C15_17  and  O3_19 
REMARK    5  A    between atoms: O5_23  and  C19_24 
REMARK    6  A    between atoms: C19_24  and  C20_25 
REMARK    7  A    between atoms: C20_25  and  N1_26 
ROOT
ATOM      1  C1  <0> d   1      -1.326   6.282  -0.085  0.00  0.00     0.050 C 
ATOM      2  C2  <0> d   1      -0.026   5.529  -0.206  0.00  0.00    -0.032 A 
ATOM      3  C3  <0> d   1      -0.011   4.110  -0.188  0.00  0.00     0.005 A 
ATOM      4  C4  <0> d   1      -1.211   3.394  -0.058  0.00  0.00     0.017 A 
ATOM      5  C5  <0> d   1      -1.192   2.030  -0.047  0.00  0.00     0.038 A 
ATOM      6  C6  <0> d   1       0.015   1.341  -0.154  0.00  0.00     0.071 A 
ATOM      7  C7  <0> d   1       1.209   2.030  -0.283  0.00  0.00     0.075 A 
ATOM      8  C8  <0> d   1       1.208   3.418  -0.302  0.00  0.00     0.093 A 
ATOM      9  O1  <0> d   1       2.373   4.091  -0.429  0.00  0.00    -0.274 OA
ATOM     10  C9  <0> d   1       2.402   5.434  -0.451  0.00  0.00     0.300 A 
ATOM     11  O2  <0> d   1       3.465   6.016  -0.566  0.00  0.00    -0.259 OA
ATOM     12  C10 <0> d   1       1.159   6.201  -0.335  0.00  0.00     0.057 A 
ENDROOT
BRANCH   6  13
ATOM     13  O5  <0> d   1       0.019  -0.017  -0.136  0.00  0.00    -0.349 OA
BRANCH  13  14
ATOM     14  C19 <0> d   1      -1.246  -0.668   0.001  0.00  0.00     0.206 C 
BRANCH  14  15
ATOM     15  C20 <0> d   1      -1.041  -2.184   0.000  0.00  0.00     0.299 C 
BRANCH  15  16
ATOM     16  N1  <0> d   1      -0.274  -2.575   1.190  0.00  0.00     0.093 N 
ATOM     17  C24 <0> d   1      -1.117  -2.545   2.394  0.00  0.00     0.302 C 
ATOM     18  C23 <0> d   1      -0.264  -2.880   3.619  0.00  0.00     0.302 C 
ATOM     19  N2  <0> d   1       0.347  -4.205   3.441  0.00  0.00     0.087 N 
ATOM     20  C22 <0> d   1       1.190  -4.234   2.237  0.00  0.00     0.302 C 
ATOM     21  C25 <0> d   1       1.115  -4.596   4.630  0.00  0.00     0.310 C 
ATOM     22  C21 <0> d   1       0.337  -3.899   1.011  0.00  0.00     0.302 C 
ENDBRANCH  15  16
ENDBRANCH  14  15
ENDBRANCH  13  14
ENDBRANCH   6  13
BRANCH  12  23
ATOM     23  C11 <0> d   1       1.184   7.682  -0.359  0.00  0.00    -0.017 A 
ATOM     24  C16 <0> d   1       1.813   8.386   0.667  0.00  0.00     0.052 A 
ATOM     25  C15 <0> d   1       1.835   9.769   0.641  0.00  0.00     0.102 A 
ATOM     26  C14 <0> d   1       1.229  10.455  -0.409  0.00  0.00     0.101 A 
ATOM     27  C13 <0> d   1       0.604   9.754  -1.429  0.00  0.00     0.040 A 
ATOM     28  C12 <0> d   1       0.584   8.374  -1.410  0.00  0.00     0.015 A 
BRANCH  25  29
ATOM     29  O3  <0> d   1       2.447  10.459   1.641  0.00  0.00    -0.353 OA
ATOM     30  C17 <0> d   1       3.047   9.691   2.686  0.00  0.00     0.210 C 
ENDBRANCH  25  29
BRANCH  26  31
ATOM     31  O4  <0> d   1       1.251  11.814  -0.434  0.00  0.00    -0.353 OA
ATOM     32  C18 <0> d   1       0.610  12.453  -1.540  0.00  0.00     0.210 C 
ENDBRANCH  26  31
ENDBRANCH  12  23
TORSDOF 7
