REMARK  6 active torsions:
REMARK  status: ('A' for Active; 'I' for Inactive)
REMARK    1  A    between atoms: C6_6  and  C7_7 
REMARK    2  A    between atoms: C15_17  and  C16_18 
REMARK    3  A    between atoms: C16_18  and  N1_19 
REMARK    4  A    between atoms: N2_22  and  C21_25 
REMARK    5  A    between atoms: C21_25  and  C22_26 
REMARK    6  A    between atoms: C22_26  and  O3_27 
ROOT
ATOM      1  C7  <0> d   1       1.369   5.227   4.960  0.00  0.00     0.048 A 
ATOM      2  C8  <0> d   1       1.840   4.670   3.814  0.00  0.00     0.159 A 
ATOM      3  O1  <0> d   1       1.404   3.495   3.354  0.00  0.00    -0.320 OA
ATOM      4  C9  <0> d   1       0.463   2.759   3.978  0.00  0.00     0.100 A 
ATOM      5  C10 <0> d   1      -0.118   3.217   5.174  0.00  0.00     0.050 A 
ATOM      6  C11 <0> d   1       0.328   4.512   5.718  0.00  0.00     0.197 A 
ATOM      7  O2  <0> d   1      -0.133   4.964   6.753  0.00  0.00    -0.286 OA
ATOM      8  C12 <0> d   1      -1.089   2.454   5.824  0.00  0.00     0.021 A 
ATOM      9  C13 <0> d   1      -1.480   1.258   5.293  0.00  0.00     0.041 A 
ATOM     10  C14 <0> d   1      -0.914   0.798   4.106  0.00  0.00     0.118 A 
ATOM     11  C15 <0> d   1       0.050   1.544   3.449  0.00  0.00     0.039 A 
ATOM     12  O4  <0> d   1      -1.311  -0.392   3.589  0.00  0.00    -0.191 OA
ENDROOT
BRANCH  11  13
ATOM     13  C16 <0> d   1       0.655   1.035   2.166  0.00  0.00     0.279 C 
BRANCH  13  14
ATOM     14  N1  <0> d   1      -0.139   1.513   1.026  0.00  0.00    -0.064 N 
ATOM     15  C20 <0> d   1      -0.443   2.945   1.160  0.00  0.00     0.265 C 
ATOM     16  C19 <0> d   1      -1.336   3.385  -0.002  0.00  0.00     0.300 C 
ATOM     17  N2  <0> d   1      -0.651   3.112  -1.273  0.00  0.00     0.093 N 
ATOM     18  C18 <0> d   1      -0.347   1.681  -1.407  0.00  0.00     0.300 C 
ATOM     19  C17 <0> d   1       0.545   1.240  -0.245  0.00  0.00     0.265 C 
ATOM     20  H23 <0> d   1      -1.091   0.963   1.025  0.00  0.00     0.280 HD
BRANCH  17  21
ATOM     21  C21 <0> d   1      -1.445   3.591  -2.413  0.00  0.00     0.298 C 
BRANCH  21  22
ATOM     22  C22 <0> d   1      -1.820   5.058  -2.193  0.00  0.00     0.194 C 
BRANCH  22  23
ATOM     23  O3  <0> d   1      -0.632   5.850  -2.138  0.00  0.00    -0.399 OA
ATOM     24  H22 <0> d   1      -0.702   6.937  -1.984  0.00  0.00     0.209 HD
ENDBRANCH  22  23
ENDBRANCH  21  22
ENDBRANCH  17  21
ENDBRANCH  13  14
ENDBRANCH  11  13
BRANCH   1  25
ATOM     25  C6  <0> d   1       1.884   6.535   5.432  0.00  0.00    -0.020 A 
ATOM     26  C1  <0> d   1       0.997   7.552   5.782  0.00  0.00     0.014 A 
ATOM     27  C2  <0> d   1       1.481   8.766   6.224  0.00  0.00     0.020 A 
ATOM     28  C3  <0> d   1       2.846   8.978   6.312  0.00  0.00     0.011 A 
ATOM     29  C4  <0> d   1       3.732   7.974   5.962  0.00  0.00     0.020 A 
ATOM     30 Br1  <0> d   1       3.503  10.646   6.913  0.00  0.00    -0.051 Br
ATOM     31  C5  <0> d   1       3.257   6.755   5.523  0.00  0.00     0.014 A 
ENDBRANCH   1  25
TORSDOF 6
