REMARK  7 active torsions:
REMARK  status: ('A' for Active; 'I' for Inactive)
REMARK    1  A    between atoms: C2_2  and  C3_3 
REMARK    2  A    between atoms: C6_6  and  C12_15 
REMARK    3  A    between atoms: C11_13  and  O3_14 
REMARK    4  A    between atoms: C12_15  and  N1_16 
REMARK    5  A    between atoms: N2_19  and  C17_22 
REMARK    6  A    between atoms: C17_22  and  C18_23 
REMARK    7  A    between atoms: C17_22  and  C24_29 
ROOT
ATOM      1  N1  <0> d   1      -0.701   1.560   1.216  0.00  0.00     0.096 N 
ATOM      2  C13 <0> d   1      -0.013   1.086   0.008  0.00  0.00     0.303 C 
ATOM      3  C14 <0> d   1      -0.754   1.593  -1.231  0.00  0.00     0.304 C 
ATOM      4  N2  <0> d   1      -0.806   3.062  -1.200  0.00  0.00     0.105 N 
ATOM      5  C15 <0> d   1      -1.495   3.536   0.008  0.00  0.00     0.304 C 
ATOM      6  C16 <0> d   1      -0.754   3.029   1.247  0.00  0.00     0.303 C 
ENDROOT
BRANCH   1   7
ATOM      7  C12 <0> d   1      -0.062   1.031   2.429  0.00  0.00     0.312 C 
BRANCH   7   8
ATOM      8  C6  <0> d   1      -0.631   1.724   3.640  0.00  0.00    -0.011 A 
ATOM      9  C5  <0> d   1      -1.923   1.321   4.199  0.00  0.00     0.007 A 
ATOM     10  C4  <0> d   1      -2.665   0.282   3.626  0.00  0.00     0.024 A 
ATOM     11  C9  <0> d   1      -2.416   1.996   5.332  0.00  0.00     0.093 A 
ATOM     12  C3  <0> d   1      -3.866  -0.073   4.168  0.00  0.00    -0.024 A 
ATOM     13  C11 <0> d   1      -4.359   0.591   5.289  0.00  0.00     0.074 A 
ATOM     14  C10 <0> d   1      -3.638   1.621   5.870  0.00  0.00     0.075 A 
ATOM     15  O2  <0> d   1      -1.697   2.997   5.884  0.00  0.00    -0.275 OA
ATOM     16  C8  <0> d   1      -0.512   3.370   5.376  0.00  0.00     0.288 A 
ATOM     17  C7  <0> d   1       0.043   2.735   4.246  0.00  0.00     0.092 A 
ATOM     18  O1  <0> d   1       0.101   4.279   5.907  0.00  0.00    -0.260 OA
BRANCH  12  19
ATOM     19  C2  <0> d   1      -4.664  -1.192   3.550  0.00  0.00     0.037 C 
ATOM     20  C1  <0> d   1      -4.455  -2.474   4.358  0.00  0.00     0.010 C 
ENDBRANCH  12  19
BRANCH  13  21
ATOM     21  O3  <0> d   1      -5.555   0.226   5.816  0.00  0.00    -0.360 OA
ATOM     22  H9  <0> d   1      -5.948   0.748   6.701  0.00  0.00     0.217 HD
ENDBRANCH  13  21
ENDBRANCH   7   8
ENDBRANCH   1   7
BRANCH   4  23
ATOM     23  C17 <0> d   1      -1.445   3.591  -2.413  0.00  0.00     0.289 C 
BRANCH  23  24
ATOM     24  C18 <0> d   1      -1.480   5.096  -2.345  0.00  0.00    -0.021 A 
ATOM     25  C23 <0> d   1      -2.598   5.782  -2.785  0.00  0.00     0.010 A 
ATOM     26  C22 <0> d   1      -2.630   7.162  -2.722  0.00  0.00     0.001 A 
ATOM     27  C21 <0> d   1      -1.545   7.857  -2.221  0.00  0.00     0.000 A 
ATOM     28  C20 <0> d   1      -0.428   7.172  -1.782  0.00  0.00     0.001 A 
ATOM     29  C19 <0> d   1      -0.398   5.791  -1.839  0.00  0.00     0.010 A 
ENDBRANCH  23  24
BRANCH  23  30
ATOM     30  C24 <0> d   1      -0.658   3.161  -3.624  0.00  0.00    -0.021 A 
ATOM     31  C29 <0> d   1      -1.317   2.770  -4.774  0.00  0.00     0.010 A 
ATOM     32  C28 <0> d   1      -0.595   2.376  -5.885  0.00  0.00     0.001 A 
ATOM     33  C27 <0> d   1       0.786   2.372  -5.846  0.00  0.00     0.000 A 
ATOM     34  C26 <0> d   1       1.446   2.764  -4.696  0.00  0.00     0.001 A 
ATOM     35  C25 <0> d   1       0.724   3.163  -3.587  0.00  0.00     0.010 A 
ENDBRANCH  23  30
ENDBRANCH   4  23
TORSDOF 7
