REMARK  7 active torsions:
REMARK  status: ('A' for Active; 'I' for Inactive)
REMARK    1  A    between atoms: O1_2  and  C2_3 
REMARK    2  A    between atoms: C5_6  and  C8_9 
REMARK    3  A    between atoms: C15_18  and  O6_37 
REMARK    4  A    between atoms: C16_19  and  C17_20 
REMARK    5  A    between atoms: C17_20  and  N1_21 
REMARK    6  A    between atoms: N2_24  and  C22_27 
REMARK    7  A    between atoms: C22_27  and  C23_28 
ROOT
ATOM      1  C8  <0> d   1      -4.964  -2.620   0.036  0.00  0.00     0.048 C 
ATOM      2  C9  <0> d   1      -5.817  -2.513  -1.016  0.00  0.00     0.159 C 
ATOM      3  O2  <0> d   1      -6.999  -3.131  -1.053  0.00  0.00    -0.320 OA
ATOM      4  C10 <0> d   1      -7.564  -3.648   0.055  0.00  0.00     0.100 A 
ATOM      5  C11 <0> d   1      -6.799  -3.840   1.219  0.00  0.00     0.050 A 
ATOM      6  C12 <0> d   1      -5.376  -3.448   1.185  0.00  0.00     0.197 C 
ATOM      7  O3  <0> d   1      -4.591  -3.784   2.055  0.00  0.00    -0.286 OA
ATOM      8  C13 <0> d   1      -7.377  -4.385   2.365  0.00  0.00     0.021 A 
ATOM      9  C14 <0> d   1      -8.700  -4.729   2.357  0.00  0.00     0.038 A 
ATOM     10  C15 <0> d   1      -9.469  -4.537   1.212  0.00  0.00     0.076 A 
ATOM     11  C16 <0> d   1      -8.908  -4.000   0.066  0.00  0.00     0.038 A 
ENDROOT
BRANCH  11  12
ATOM     12  C17 <0> d   1      -9.752  -3.798  -1.166  0.00  0.00     0.317 C 
BRANCH  12  13
ATOM     13  N1  <0> d   1      -9.696  -5.005  -2.001  0.00  0.00     0.096 N 
ATOM     14  C21 <0> d   1     -10.308  -4.764  -3.315  0.00  0.00     0.303 C 
ATOM     15  C20 <0> d   1     -10.159  -6.018  -4.181  0.00  0.00     0.303 C 
ATOM     16  N2  <0> d   1     -10.799  -7.155  -3.506  0.00  0.00     0.096 N 
ATOM     17  C19 <0> d   1     -10.187  -7.396  -2.192  0.00  0.00     0.303 C 
ATOM     18  C18 <0> d   1     -10.336  -6.143  -1.326  0.00  0.00     0.303 C 
BRANCH  16  19
ATOM     19  C22 <0> d   1     -10.743  -8.363  -4.341  0.00  0.00     0.311 C 
BRANCH  19  20
ATOM     20  C23 <0> d   1     -11.587  -8.161  -5.573  0.00  0.00    -0.027 A 
ATOM     21  C28 <0> d   1     -11.023  -7.624  -6.715  0.00  0.00     0.048 A 
ATOM     22  C27 <0> d   1     -11.796  -7.442  -7.851  0.00  0.00     0.105 A 
ATOM     23  C26 <0> d   1     -13.145  -7.791  -7.834  0.00  0.00     0.105 A 
ATOM     24  O4  <0> d   1     -11.489  -6.946  -9.085  0.00  0.00    -0.323 OA
ATOM     25  C25 <0> d   1     -13.704  -8.323  -6.684  0.00  0.00     0.040 A 
ATOM     26  O5  <0> d   1     -13.682  -7.513  -9.057  0.00  0.00    -0.323 OA
ATOM     27  C24 <0> d   1     -12.926  -8.507  -5.556  0.00  0.00     0.012 A 
ATOM     28  C29 <0> d   1     -12.560  -7.374  -9.948  0.00  0.00     0.352 C 
ENDBRANCH  19  20
ENDBRANCH  16  19
ENDBRANCH  12  13
ENDBRANCH  11  12
BRANCH  10  29
ATOM     29  O6  <0> d   1     -10.782  -4.881   1.219  0.00  0.00    -0.360 OA
ATOM     30  H28 <0> d   1     -11.373  -4.169   1.499  0.00  0.00     0.217 HD
ENDBRANCH  10  29
BRANCH   1  31
ATOM     31  C5  <0> d   1      -3.651  -1.929   0.027  0.00  0.00    -0.020 A 
ATOM     32  C4  <0> d   1      -3.596  -0.536   0.028  0.00  0.00     0.015 A 
ATOM     33  C3  <0> d   1      -2.374   0.104   0.020  0.00  0.00     0.037 A 
ATOM     34  C2  <0> d   1      -1.200  -0.637   0.010  0.00  0.00     0.068 A 
ATOM     35  C7  <0> d   1      -1.252  -2.025   0.003  0.00  0.00     0.037 A 
ATOM     36  C6  <0> d   1      -2.471  -2.670   0.017  0.00  0.00     0.015 A 
BRANCH  34  37
ATOM     37  O1  <0> d   1       0.002  -0.004   0.002  0.00  0.00    -0.356 OA
ATOM     38  C1  <0> d   1      -0.017   1.425   0.010  0.00  0.00     0.210 C 
ENDBRANCH  34  37
ENDBRANCH   1  31
TORSDOF 7
