REMARK  5 active torsions:
REMARK  status: ('A' for Active; 'I' for Inactive)
REMARK    1  A    between atoms: C3_3  and  C15_20 
REMARK    2  A    between atoms: C4_4  and  C5_8 
REMARK    3  A    between atoms: C8_11  and  O2_15 
REMARK    4  A    between atoms: O2_15  and  C11_16 
REMARK    5  A    between atoms: C11_16  and  C12_17 
ROOT
ATOM      1  C1  <0> d   1       1.262   1.151  -0.509  0.00  0.00     0.070 C 
ATOM      2  C2  <0> d   1       0.574  -0.160  -0.229  0.00  0.00     0.037 A 
ATOM      3  C3  <0> d   1       0.796  -0.970   0.845  0.00  0.00     0.029 A 
ATOM      4  C4  <0> d   1      -0.059  -2.093   0.715  0.00  0.00     0.103 A 
ATOM      5  N1  <0> d   1      -0.754  -1.944  -0.392  0.00  0.00    -0.173 NA
ATOM      6  H1  <0> d   1      -0.734  -0.379  -1.820  0.00  0.00     0.189 HD
ATOM      7  N2  <0> d   1      -0.375  -0.738  -0.993  0.00  0.00    -0.281 N 
ENDROOT
BRANCH   4   8
ATOM      8  C5  <0> d   1      -0.153  -3.232   1.659  0.00  0.00     0.032 A 
ATOM      9  C10 <0> d   1      -0.143  -4.545   1.177  0.00  0.00     0.122 A 
ATOM     10  C9  <0> d   1      -0.227  -5.605   2.064  0.00  0.00     0.077 A 
ATOM     11  O1  <0> d   1      -0.047  -4.780  -0.158  0.00  0.00    -0.191 OA
ATOM     12  C8  <0> d   1      -0.331  -5.364   3.425  0.00  0.00     0.071 A 
ATOM     13  C7  <0> d   1      -0.346  -4.060   3.905  0.00  0.00     0.038 A 
ATOM     14  C6  <0> d   1      -0.258  -2.998   3.029  0.00  0.00     0.019 A 
BRANCH  12  15
ATOM     15  O2  <0> d   1      -0.417  -6.405   4.293  0.00  0.00    -0.347 OA
BRANCH  15  16
ATOM     16  C11 <0> d   1      -0.395  -7.720   3.733  0.00  0.00     0.208 C 
BRANCH  16  17
ATOM     17  C12 <0> d   1      -0.500  -8.739   4.839  0.00  0.00    -0.069 C 
ATOM     18  C13 <0> d   1      -0.592  -8.346   6.085  0.00  0.00     0.016 C 
ATOM     19  C14 <0> d   1      -0.499 -10.210   4.511  0.00  0.00     0.044 C 
ENDBRANCH  16  17
ENDBRANCH  15  16
ENDBRANCH  12  15
ENDBRANCH   4   8
BRANCH   3  20
ATOM     20  C15 <0> d   1       1.758  -0.721   1.947  0.00  0.00    -0.022 A 
ATOM     21  C20 <0> d   1       1.552   0.339   2.828  0.00  0.00     0.012 A 
ATOM     22  C19 <0> d   1       2.446   0.561   3.856  0.00  0.00     0.001 A 
ATOM     23  C18 <0> d   1       3.551  -0.258   4.005  0.00  0.00     0.000 A 
ATOM     24  C17 <0> d   1       3.763  -1.308   3.129  0.00  0.00     0.001 A 
ATOM     25  C16 <0> d   1       2.872  -1.543   2.102  0.00  0.00     0.012 A 
ENDBRANCH   3  20
TORSDOF 5
