REMARK  5 active torsions:
REMARK  status: ('A' for Active; 'I' for Inactive)
REMARK    1  A    between atoms: C2_2  and  N1_3 
REMARK    2  A    between atoms: N2_6  and  C7_9 
REMARK    3  A    between atoms: C7_9  and  C8_10 
REMARK    4  A    between atoms: C9_11  and  O3_28 
REMARK    5  A    between atoms: C15_18  and  C16_19 
ROOT
ATOM      1  C8  <0> d   1      -4.736  -1.050   0.322  0.00  0.00     0.038 A 
ATOM      2  C9  <0> d   1      -5.493  -2.204   0.444  0.00  0.00     0.076 A 
ATOM      3  C10 <0> d   1      -4.877  -3.451   0.501  0.00  0.00     0.038 A 
ATOM      4  C11 <0> d   1      -3.516  -3.549   0.436  0.00  0.00     0.021 A 
ATOM      5  C12 <0> d   1      -2.741  -2.395   0.315  0.00  0.00     0.051 A 
ATOM      6  C13 <0> d   1      -3.351  -1.131   0.256  0.00  0.00     0.101 A 
ATOM      7  O1  <0> d   1      -2.405  -0.173   0.139  0.00  0.00    -0.305 OA
ATOM      8  C14 <0> d   1      -1.157  -0.699   0.112  0.00  0.00     0.127 A 
ATOM      9  C15 <0> d   1       0.002  -0.004   0.002  0.00  0.00     0.053 C 
ATOM     10  C22 <0> d   1      -1.289  -2.161   0.216  0.00  0.00     0.218 A 
ATOM     11  O2  <0> d   1      -0.398  -2.992   0.223  0.00  0.00    -0.284 OA
ENDROOT
BRANCH   1  12
ATOM     12  C7  <0> d   1      -5.415   0.294   0.261  0.00  0.00     0.317 C 
BRANCH  12  13
ATOM     13  N2  <0> d   1      -5.708   0.632  -1.138  0.00  0.00     0.096 N 
ATOM     14  C4  <0> d   1      -6.577   1.814  -1.224  0.00  0.00     0.303 C 
ATOM     15  C3  <0> d   1      -6.922   2.084  -2.691  0.00  0.00     0.302 C 
ATOM     16  N1  <0> d   1      -5.682   2.288  -3.453  0.00  0.00     0.091 N 
ATOM     17  C6  <0> d   1      -4.814   1.106  -3.367  0.00  0.00     0.302 C 
ATOM     18  C5  <0> d   1      -4.468   0.836  -1.901  0.00  0.00     0.303 C 
BRANCH  16  19
ATOM     19  C2  <0> d   1      -5.975   2.626  -4.853  0.00  0.00     0.268 C 
ATOM     20  C1  <0> d   1      -4.681   2.586  -5.668  0.00  0.00     0.037 C 
ENDBRANCH  16  19
ENDBRANCH  12  13
ENDBRANCH   1  12
BRANCH   2  21
ATOM     21  O3  <0> d   1      -6.846  -2.118   0.508  0.00  0.00    -0.360 OA
ATOM     22  H23 <0> d   1      -7.451  -3.031   0.605  0.00  0.00     0.217 HD
ENDBRANCH   2  21
BRANCH   9  23
ATOM     23  C16 <0> d   1      -0.017   1.466   0.017  0.00  0.00    -0.030 A 
ATOM     24  C21 <0> d   1       1.183   2.184   0.038  0.00  0.00     0.053 A 
ATOM     25  C20 <0> d   1       1.156   3.565   0.047  0.00  0.00     0.117 A 
ATOM     26  C19 <0> d   1      -0.057   4.237   0.046  0.00  0.00     0.042 A 
ATOM     27  F1  <0> d   1       2.313   4.262   0.062  0.00  0.00    -0.206 F 
ATOM     28  C18 <0> d   1      -1.247   3.532   0.031  0.00  0.00     0.004 A 
ATOM     29  C17 <0> d   1      -1.236   2.153   0.017  0.00  0.00     0.011 A 
ENDBRANCH   9  23
TORSDOF 5
