REMARK  8 active torsions:
REMARK  status: ('A' for Active; 'I' for Inactive)
REMARK    1  A    between atoms: C2_2  and  C3_3 
REMARK    2  A    between atoms: C6_6  and  C9_9 
REMARK    3  A    between atoms: C15_16  and  O4_30 
REMARK    4  A    between atoms: C16_17  and  C18_20 
REMARK    5  A    between atoms: C18_20  and  N1_21 
REMARK    6  A    between atoms: N2_24  and  C23_27 
REMARK    7  A    between atoms: C23_27  and  C24_28 
REMARK    8  A    between atoms: C24_28  and  O3_29 
ROOT
ATOM      1  C9  <0> d   1       2.692  -1.858  -4.726  0.00  0.00     0.053 C 
ATOM      2  C10 <0> d   1       4.043  -1.974  -4.736  0.00  0.00     0.127 A 
ATOM      3  C11 <0> d   1       4.877  -2.328  -5.896  0.00  0.00     0.218 A 
ATOM      4  O1  <0> d   1       4.510  -2.575  -7.032  0.00  0.00    -0.284 OA
ATOM      5  C12 <0> d   1       6.257  -2.317  -5.376  0.00  0.00     0.051 A 
ATOM      6  C13 <0> d   1       7.499  -2.564  -5.962  0.00  0.00     0.021 A 
ATOM      7  C14 <0> d   1       8.636  -2.476  -5.209  0.00  0.00     0.038 A 
ATOM      8  C15 <0> d   1       8.557  -2.139  -3.860  0.00  0.00     0.076 A 
ATOM      9  C16 <0> d   1       7.330  -1.891  -3.266  0.00  0.00     0.038 A 
ATOM     10  C17 <0> d   1       6.165  -1.976  -4.017  0.00  0.00     0.101 A 
ATOM     11  O2  <0> d   1       4.870  -1.781  -3.683  0.00  0.00    -0.305 OA
ENDROOT
BRANCH   9  12
ATOM     12  C18 <0> d   1       7.260  -1.528  -1.805  0.00  0.00     0.317 C 
BRANCH  12  13
ATOM     13  N1  <0> d   1       7.351  -0.069  -1.658  0.00  0.00     0.096 N 
ATOM     14  C22 <0> d   1       7.050   0.341  -0.279  0.00  0.00     0.303 C 
ATOM     15  C21 <0> d   1       7.076   1.868  -0.186  0.00  0.00     0.302 C 
ATOM     16  N2  <0> d   1       8.398   2.358  -0.602  0.00  0.00     0.093 N 
ATOM     17  C20 <0> d   1       8.699   1.949  -1.981  0.00  0.00     0.302 C 
ATOM     18  C19 <0> d   1       8.672   0.421  -2.074  0.00  0.00     0.303 C 
BRANCH  16  19
ATOM     19  C23 <0> d   1       8.488   3.817  -0.455  0.00  0.00     0.298 C 
BRANCH  19  20
ATOM     20  C24 <0> d   1       8.417   4.186   1.028  0.00  0.00     0.194 C 
BRANCH  20  21
ATOM     21  O3  <0> d   1       9.564   3.666   1.704  0.00  0.00    -0.399 OA
ATOM     22  H27 <0> d   1       9.585   3.862   2.651  0.00  0.00     0.209 HD
ENDBRANCH  20  21
ENDBRANCH  19  20
ENDBRANCH  16  19
ENDBRANCH  12  13
ENDBRANCH   9  12
BRANCH   8  23
ATOM     23  O4  <0> d   1       9.692  -2.054  -3.120  0.00  0.00    -0.360 OA
ATOM     24  H28 <0> d   1      10.093  -1.175  -3.115  0.00  0.00     0.217 HD
ENDBRANCH   8  23
BRANCH   1  25
ATOM     25  C6  <0> d   1       2.005  -1.379  -3.519  0.00  0.00    -0.033 A 
ATOM     26  C5  <0> d   1       2.724  -1.164  -2.338  0.00  0.00     0.012 A 
ATOM     27  C4  <0> d   1       2.072  -0.714  -1.210  0.00  0.00     0.008 A 
ATOM     28  C3  <0> d   1       0.709  -0.476  -1.243  0.00  0.00    -0.059 A 
ATOM     29  C8  <0> d   1      -0.011  -0.691  -2.405  0.00  0.00     0.008 A 
ATOM     30  C7  <0> d   1       0.627  -1.135  -3.543  0.00  0.00     0.012 A 
BRANCH  28  31
ATOM     31  C2  <0> d   1       0.004   0.016  -0.005  0.00  0.00     0.034 C 
ATOM     32  C1  <0> d   1      -0.477  -1.181   0.818  0.00  0.00     0.010 C 
ENDBRANCH  28  31
ENDBRANCH   1  25
TORSDOF 8
