REMARK  8 active torsions:
REMARK  status: ('A' for Active; 'I' for Inactive)
REMARK    1  A    between atoms: C2_2  and  N1_3 
REMARK    2  A    between atoms: N1_3  and  C3_4 
REMARK    3  A    between atoms: N1_3  and  C5_6 
REMARK    4  A    between atoms: C5_6  and  C6_7 
REMARK    5  A    between atoms: C13_15  and  O3_18 
REMARK    6  A    between atoms: O3_18  and  C15_19 
REMARK    7  A    between atoms: C20_24  and  O4_25 
REMARK    8  A    between atoms: O4_25  and  C21_26 
ROOT
ATOM      1  C6  <0> d   1       0.596   1.725   0.376  0.00  0.00     0.039 A 
ATOM      2  C7  <0> d   1       1.831   2.257   0.707  0.00  0.00     0.118 A 
ATOM      3  C8  <0> d   1       1.969   3.619   0.968  0.00  0.00     0.041 A 
ATOM      4  C9  <0> d   1       0.886   4.448   0.902  0.00  0.00     0.021 A 
ATOM      5  C10 <0> d   1      -0.365   3.928   0.569  0.00  0.00     0.052 A 
ATOM      6  C11 <0> d   1      -0.512   2.555   0.298  0.00  0.00     0.101 A 
ATOM      7  O1  <0> d   1      -1.727   2.062  -0.016  0.00  0.00    -0.311 OA
ATOM      8  C12 <0> d   1      -2.818   2.836  -0.094  0.00  0.00     0.087 A 
ATOM      9  C13 <0> d   1      -2.789   4.163   0.141  0.00  0.00     0.156 A 
ATOM     10  C14 <0> d   1      -1.558   4.788   0.487  0.00  0.00     0.221 A 
ATOM     11  O2  <0> d   1      -1.493   5.986   0.707  0.00  0.00    -0.284 OA
ATOM     12  C23 <0> d   1      -4.133   2.196  -0.459  0.00  0.00     0.080 C 
ATOM     13  O5  <0> d   1       2.917   1.445   0.777  0.00  0.00    -0.191 OA
ENDROOT
BRANCH   9  14
ATOM     14  O3  <0> d   1      -3.929   4.900   0.048  0.00  0.00    -0.301 OA
BRANCH  14  15
ATOM     15  C15 <0> d   1      -4.240   5.447  -1.157  0.00  0.00     0.109 A 
ATOM     16  C20 <0> d   1      -5.396   6.209  -1.301  0.00  0.00     0.102 A 
ATOM     17  C19 <0> d   1      -5.707   6.764  -2.531  0.00  0.00     0.039 A 
ATOM     18  C18 <0> d   1      -4.870   6.561  -3.613  0.00  0.00     0.003 A 
ATOM     19  C17 <0> d   1      -3.722   5.804  -3.471  0.00  0.00     0.003 A 
ATOM     20  C16 <0> d   1      -3.403   5.252  -2.245  0.00  0.00     0.040 A 
BRANCH  16  21
ATOM     21  O4  <0> d   1      -6.217   6.408  -0.236  0.00  0.00    -0.349 OA
BRANCH  21  22
ATOM     22  C21 <0> d   1      -7.386   7.200  -0.457  0.00  0.00     0.171 C 
ATOM     23  C22 <0> d   1      -8.180   7.313   0.846  0.00  0.00     0.034 C 
ENDBRANCH  21  22
ENDBRANCH  16  21
ENDBRANCH  14  15
ENDBRANCH   9  14
BRANCH   1  24
ATOM     24  C5  <0> d   1       0.459   0.251   0.095  0.00  0.00     0.279 C 
BRANCH  24  25
ATOM     25  N1  <0> d   1       0.154  -0.459   1.345  0.00  0.00    -0.068 N 
ATOM     26  H27 <0> d   1       0.906  -0.166   2.092  0.00  0.00     0.280 HD
BRANCH  25  27
ATOM     27  C2  <0> d   1      -1.167  -0.076   1.859  0.00  0.00     0.231 C 
ATOM     28  C1  <0> d   1      -2.250  -0.556   0.891  0.00  0.00     0.034 C 
ENDBRANCH  25  27
BRANCH  25  29
ATOM     29  C3  <0> d   1       0.246  -1.914   1.160  0.00  0.00     0.231 C 
ATOM     30  C4  <0> d   1       0.309  -2.599   2.526  0.00  0.00     0.034 C 
ENDBRANCH  25  29
ENDBRANCH  24  25
ENDBRANCH   1  24
TORSDOF 8
