REMARK  3 active torsions:
REMARK  status: ('A' for Active; 'I' for Inactive)
REMARK    1  A    between atoms: C9_10  and  C10_11 
REMARK    2  A    between atoms: N1_21  and  C19_24 
REMARK    3  A    between atoms: C19_24  and  C20_25 
ROOT
ATOM      1  C1  <0> d   1      -2.022   3.655  -6.147  0.00  0.00     0.054 C 
ATOM      2  C2  <0> d   1      -3.066   3.483  -5.074  0.00  0.00     0.007 A 
ATOM      3  C3  <0> d   1      -2.678   3.221  -3.767  0.00  0.00     0.087 A 
ATOM      4  C4  <0> d   1      -3.633   3.061  -2.768  0.00  0.00     0.005 A 
ATOM      5  C5  <0> d   1      -4.964   3.159  -3.070  0.00  0.00     0.030 A 
ATOM      6  C6  <0> d   1      -5.367   3.421  -4.378  0.00  0.00     0.052 A 
ATOM      7  C7  <0> d   1      -4.412   3.586  -5.396  0.00  0.00     0.099 A 
ATOM      8  O1  <0> d   1      -5.035   3.829  -6.569  0.00  0.00    -0.305 OA
ATOM      9  C8  <0> d   1      -6.382   3.843  -6.432  0.00  0.00     0.127 A 
ATOM     10  C9  <0> d   1      -7.286   4.058  -7.420  0.00  0.00     0.053 C 
ATOM     11  C16 <0> d   1      -6.686   3.582  -5.016  0.00  0.00     0.218 A 
ATOM     12  O2  <0> d   1      -7.782   3.514  -4.489  0.00  0.00    -0.284 OA
ATOM     13  C17 <0> d   1      -3.221   2.780  -1.345  0.00  0.00     0.317 C 
ATOM     14  N1  <0> d   1      -1.827   2.313  -1.319  0.00  0.00     0.121 N 
ATOM     15  C18 <0> d   1      -0.974   3.219  -2.106  0.00  0.00     0.448 C 
ATOM     16  O3  <0> d   1      -1.353   3.123  -3.481  0.00  0.00    -0.320 OA
ENDROOT
BRANCH  10  17
ATOM     17  C10 <0> d   1      -6.829   4.420  -8.768  0.00  0.00    -0.033 A 
ATOM     18  C15 <0> d   1      -5.463   4.419  -9.071  0.00  0.00     0.014 A 
ATOM     19  C14 <0> d   1      -5.041   4.759 -10.338  0.00  0.00     0.043 A 
ATOM     20  C13 <0> d   1      -5.967   5.102 -11.312  0.00  0.00     0.116 A 
ATOM     21  C12 <0> d   1      -7.323   5.105 -11.018  0.00  0.00     0.043 A 
ATOM     22  F1  <0> d   1      -5.547   5.435 -12.552  0.00  0.00    -0.206 F 
ATOM     23  C11 <0> d   1      -7.759   4.762  -9.758  0.00  0.00     0.014 A 
ENDBRANCH  10  17
BRANCH  14  24
ATOM     24  C19 <0> d   1      -1.338   2.195   0.061  0.00  0.00     0.334 C 
BRANCH  24  25
ATOM     25  C20 <0> d   1      -0.007   1.488   0.062  0.00  0.00     0.062 A 
ATOM     26  N2  <0> d   1       0.031   0.170   0.066  0.00  0.00    -0.264 NA
ATOM     27  C24 <0> d   1       1.172  -0.492   0.062  0.00  0.00     0.117 A 
ATOM     28  C23 <0> d   1       2.379   0.181   0.054  0.00  0.00     0.019 A 
ATOM     29  C22 <0> d   1       2.379   1.568   0.049  0.00  0.00     0.003 A 
ATOM     30  C21 <0> d   1       1.160   2.228   0.053  0.00  0.00     0.029 A 
ENDBRANCH  24  25
ENDBRANCH  14  24
TORSDOF 3
