REMARK  7 active torsions:
REMARK  status: ('A' for Active; 'I' for Inactive)
REMARK    1  A    between atoms: C2_2  and  N1_3 
REMARK    2  A    between atoms: N1_3  and  C3_4 
REMARK    3  A    between atoms: N1_3  and  C5_6 
REMARK    4  A    between atoms: C5_6  and  C6_7 
REMARK    5  A    between atoms: C13_15  and  O3_18 
REMARK    6  A    between atoms: O3_18  and  C15_19 
REMARK    7  A    between atoms: C18_22  and  O4_25 
ROOT
ATOM      1  C6  <0> d   1      -1.065   7.463  -0.147  0.00  0.00     0.039 A 
ATOM      2  C7  <0> d   1      -1.049   8.160   1.050  0.00  0.00     0.118 A 
ATOM      3  C8  <0> d   1      -1.100   7.482   2.266  0.00  0.00     0.041 A 
ATOM      4  C9  <0> d   1      -1.167   6.119   2.295  0.00  0.00     0.021 A 
ATOM      5  C10 <0> d   1      -1.185   5.401   1.098  0.00  0.00     0.052 A 
ATOM      6  C11 <0> d   1      -1.133   6.077  -0.135  0.00  0.00     0.101 A 
ATOM      7  O1  <0> d   1      -1.150   5.373  -1.285  0.00  0.00    -0.311 OA
ATOM      8  C12 <0> d   1      -1.216   4.035  -1.307  0.00  0.00     0.087 A 
ATOM      9  C13 <0> d   1      -1.270   3.289  -0.186  0.00  0.00     0.156 A 
ATOM     10  C14 <0> d   1      -1.263   3.930   1.085  0.00  0.00     0.221 A 
ATOM     11  O2  <0> d   1      -1.315   3.288   2.121  0.00  0.00    -0.284 OA
ATOM     12  C22 <0> d   1      -1.230   3.336  -2.642  0.00  0.00     0.080 C 
ATOM     13  O5  <0> d   1      -0.982   9.516   1.037  0.00  0.00    -0.191 OA
ENDROOT
BRANCH   9  14
ATOM     14  O3  <0> d   1      -1.336   1.932  -0.269  0.00  0.00    -0.304 OA
BRANCH  14  15
ATOM     15  C15 <0> d   1      -0.168   1.236  -0.290  0.00  0.00     0.076 A 
ATOM     16  C20 <0> d   1      -0.188  -0.148  -0.373  0.00  0.00     0.040 A 
ATOM     17  C19 <0> d   1       0.999  -0.855  -0.400  0.00  0.00     0.039 A 
ATOM     18  C18 <0> d   1       2.210  -0.180  -0.344  0.00  0.00     0.068 A 
ATOM     19  C17 <0> d   1       2.229   1.204  -0.260  0.00  0.00     0.039 A 
ATOM     20  C16 <0> d   1       1.042   1.911  -0.233  0.00  0.00     0.040 A 
BRANCH  18  21
ATOM     21  O4  <0> d   1       3.378  -0.876  -0.370  0.00  0.00    -0.356 OA
ATOM     22  C21 <0> d   1       4.587  -0.117  -0.309  0.00  0.00     0.210 C 
ENDBRANCH  18  21
ENDBRANCH  14  15
ENDBRANCH   9  14
BRANCH   1  23
ATOM     23  C5  <0> d   1      -1.009   8.206  -1.457  0.00  0.00     0.279 C 
BRANCH  23  24
ATOM     24  N1  <0> d   1      -2.369   8.359  -1.991  0.00  0.00    -0.068 N 
ATOM     25  H25 <0> d   1      -2.898   7.406  -1.845  0.00  0.00     0.280 HD
BRANCH  24  26
ATOM     26  C2  <0> d   1      -3.106   9.401  -1.264  0.00  0.00     0.231 C 
ATOM     27  C1  <0> d   1      -2.443  10.758  -1.508  0.00  0.00     0.034 C 
ENDBRANCH  24  26
BRANCH  24  28
ATOM     28  C3  <0> d   1      -2.339   8.643  -3.432  0.00  0.00     0.231 C 
ATOM     29  C4  <0> d   1      -3.734   8.428  -4.023  0.00  0.00     0.034 C 
ENDBRANCH  24  28
ENDBRANCH  23  24
ENDBRANCH   1  23
TORSDOF 7
