REMARK  5 active torsions:
REMARK  status: ('A' for Active; 'I' for Inactive)
REMARK    1  A    between atoms: N1_4  and  C7_9 
REMARK    2  A    between atoms: C7_9  and  C8_10 
REMARK    3  A    between atoms: C8_10  and  O2_11 
REMARK    4  A    between atoms: O2_11  and  C9_12 
REMARK    5  A    between atoms: C14_18  and  C16_22 
ROOT
ATOM      1  C9  <0> d   1       6.366   0.087  -1.879  0.00  0.00     0.072 A 
ATOM      2  C10 <0> d   1       6.714   1.222  -2.583  0.00  0.00     0.092 A 
ATOM      3  C11 <0> d   1       7.991   1.773  -2.429  0.00  0.00     0.187 A 
ATOM      4  O3  <0> d   1       8.310   2.781  -3.050  0.00  0.00    -0.287 OA
ATOM      5  C12 <0> d   1       8.913   1.152  -1.547  0.00  0.00     0.043 A 
ATOM      6  C13 <0> d   1      10.210   1.692  -1.375  0.00  0.00     0.074 A 
ATOM      7  C14 <0> d   1      10.588   3.040  -1.568  0.00  0.00     0.020 A 
ATOM      8  C15 <0> d   1      11.936   3.140  -1.296  0.00  0.00     0.121 A 
ATOM      9  N2  <0> d   1      12.396   1.912  -0.946  0.00  0.00    -0.310 N 
ATOM     10  N3  <0> d   1      11.329   1.006  -0.987  0.00  0.00    -0.299 N 
ATOM     11  C22 <0> d   1       8.528  -0.001  -0.846  0.00  0.00     0.020 A 
ATOM     12  C23 <0> d   1       7.278  -0.515  -1.008  0.00  0.00     0.038 A 
ATOM     13  H19 <0> d   1      13.311   1.698  -0.704  0.00  0.00     0.186 HD
ATOM     14  H20 <0> d   1      11.375   0.060  -0.778  0.00  0.00     0.187 HD
ENDROOT
BRANCH   7  15
ATOM     15  C16 <0> d   1       9.696   4.147  -1.988  0.00  0.00    -0.022 A 
ATOM     16  C21 <0> d   1       9.899   4.784  -3.211  0.00  0.00     0.012 A 
ATOM     17  C20 <0> d   1       9.062   5.811  -3.599  0.00  0.00     0.001 A 
ATOM     18  C19 <0> d   1       8.030   6.215  -2.772  0.00  0.00     0.000 A 
ATOM     19  C18 <0> d   1       7.827   5.590  -1.555  0.00  0.00     0.001 A 
ATOM     20  C17 <0> d   1       8.654   4.559  -1.159  0.00  0.00     0.012 A 
ENDBRANCH   7  15
BRANCH   1  21
ATOM     21  O2  <0> d   1       5.127  -0.445  -2.029  0.00  0.00    -0.349 OA
BRANCH  21  22
ATOM     22  C8  <0> d   1       4.242   0.218  -2.934  0.00  0.00     0.203 C 
BRANCH  22  23
ATOM     23  C7  <0> d   1       2.903  -0.521  -2.971  0.00  0.00     0.261 C 
BRANCH  23  24
ATOM     24  N1  <0> d   1       2.259  -0.435  -1.653  0.00  0.00    -0.064 N 
ATOM     25  C3  <0> d   1       1.905   0.964  -1.372  0.00  0.00     0.266 C 
ATOM     26  C2  <0> d   1       1.235   1.051   0.001  0.00  0.00     0.143 C 
ATOM     27  C1  <0> d   1       2.220   0.597   1.080  0.00  0.00     0.041 C 
ATOM     28  O1  <0> d   1       0.082   0.205   0.019  0.00  0.00    -0.378 OA
ATOM     29  C5  <0> d   1       0.373  -1.165  -0.274  0.00  0.00     0.143 C 
ATOM     30  C4  <0> d   1       1.041  -1.257  -1.648  0.00  0.00     0.266 C 
ATOM     31  C6  <0> d   1      -0.927  -1.973  -0.283  0.00  0.00     0.041 C 
ATOM     32  H28 <0> d   1       2.895  -0.770  -0.946  0.00  0.00     0.280 HD
ENDBRANCH  23  24
ENDBRANCH  22  23
ENDBRANCH  21  22
ENDBRANCH   1  21
TORSDOF 5
