REMARK  5 active torsions:
REMARK  status: ('A' for Active; 'I' for Inactive)
REMARK    1  A    between atoms: C2_2  and  O1_3 
REMARK    2  A    between atoms: O1_3  and  C3_4 
REMARK    3  A    between atoms: C6_7  and  C9_11 
REMARK    4  A    between atoms: C7_8  and  O2_10 
REMARK    5  A    between atoms: C10_12  and  C12_17 
ROOT
ATOM      1  C9  <0> d   1       1.177  -6.032   1.953  0.00  0.00     0.075 A 
ATOM      2  C10 <0> d   1       2.298  -6.791   1.643  0.00  0.00     0.022 A 
ATOM      3  C11 <0> d   1       1.905  -8.142   1.661  0.00  0.00     0.153 A 
ATOM      4  N1  <0> d   1       0.635  -8.201   1.961  0.00  0.00    -0.186 NA
ATOM      5  N2  <0> d   1       0.149  -6.903   2.155  0.00  0.00    -0.277 N 
ATOM      6  H1  <0> d   1      -0.762  -6.665   2.390  0.00  0.00     0.189 HD
ENDROOT
BRANCH   1   7
ATOM      7  C6  <0> d   1       1.113  -4.560   2.051  0.00  0.00     0.026 A 
ATOM      8  C5  <0> d   1       0.351  -3.829   1.138  0.00  0.00     0.019 A 
ATOM      9  C4  <0> d   1       0.293  -2.455   1.233  0.00  0.00     0.038 A 
ATOM     10  C3  <0> d   1       0.992  -1.794   2.235  0.00  0.00     0.071 A 
ATOM     11  C8  <0> d   1       1.757  -2.511   3.144  0.00  0.00     0.074 A 
ATOM     12  C7  <0> d   1       1.817  -3.891   3.061  0.00  0.00     0.081 A 
BRANCH  10  13
ATOM     13  O1  <0> d   1       0.931  -0.440   2.322  0.00  0.00    -0.351 OA
BRANCH  13  14
ATOM     14  C2  <0> d   1       0.125   0.237   1.356  0.00  0.00     0.171 C 
ATOM     15  C1  <0> d   1       0.179   1.744   1.612  0.00  0.00     0.034 C 
ENDBRANCH  13  14
ENDBRANCH  10  13
BRANCH  12  16
ATOM     16  O2  <0> d   1       2.561  -4.595   3.954  0.00  0.00    -0.360 OA
ATOM     17  H10 <0> d   1       3.478  -4.733   3.679  0.00  0.00     0.217 HD
ENDBRANCH  12  16
ENDBRANCH   1   7
BRANCH   2  18
ATOM     18  C12 <0> d   1       3.656  -6.275   1.349  0.00  0.00    -0.022 A 
ATOM     19  C17 <0> d   1       4.750  -6.724   2.086  0.00  0.00     0.012 A 
ATOM     20  C16 <0> d   1       6.013  -6.245   1.803  0.00  0.00     0.001 A 
ATOM     21  C15 <0> d   1       6.192  -5.311   0.798  0.00  0.00     0.000 A 
ATOM     22  C14 <0> d   1       5.109  -4.857   0.067  0.00  0.00     0.001 A 
ATOM     23  C13 <0> d   1       3.842  -5.334   0.337  0.00  0.00     0.012 A 
ENDBRANCH   2  18
TORSDOF 5
