REMARK  4 active torsions:
REMARK  status: ('A' for Active; 'I' for Inactive)
REMARK    1  A    between atoms: C4_4  and  C7_7 
REMARK    2  A    between atoms: C7_7  and  N1_8 
REMARK    3  A    between atoms: N2_11  and  C12_14 
REMARK    4  A    between atoms: C12_14  and  C13_15 
ROOT
ATOM      1  C12 <0> d   1      -0.109   1.057  -2.412  0.00  0.00     0.312 C 
ENDROOT
BRANCH   1   2
ATOM      2  N2  <0> d   1      -0.656   1.647  -1.183  0.00  0.00     0.096 N 
ATOM      3  C9  <0> d   1       0.048   1.140   0.004  0.00  0.00     0.300 C 
ATOM      4  C8  <0> d   1      -0.601   1.716   1.264  0.00  0.00     0.265 C 
ATOM      5  N1  <0> d   1      -0.550   3.183   1.212  0.00  0.00    -0.064 N 
ATOM      6  C11 <0> d   1      -1.254   3.691   0.025  0.00  0.00     0.265 C 
ATOM      7  H23 <0> d   1       0.505   3.484   1.134  0.00  0.00     0.280 HD
ATOM      8  C10 <0> d   1      -0.604   3.115  -1.235  0.00  0.00     0.300 C 
BRANCH   5   9
ATOM      9  C7  <0> d   1      -1.097   3.774   2.441  0.00  0.00     0.273 C 
BRANCH   9  10
ATOM     10  C4  <0> d   1      -0.204   3.428   3.604  0.00  0.00    -0.033 A 
ATOM     11  C3  <0> d   1       0.843   4.264   3.945  0.00  0.00     0.009 A 
ATOM     12  C2  <0> d   1       1.662   3.947   5.012  0.00  0.00     0.001 A 
ATOM     13  C1  <0> d   1       1.433   2.794   5.740  0.00  0.00     0.000 A 
ATOM     14  C6  <0> d   1       0.386   1.958   5.400  0.00  0.00     0.001 A 
ATOM     15  C5  <0> d   1      -0.436   2.278   4.335  0.00  0.00     0.009 A 
ENDBRANCH   9  10
ENDBRANCH   5   9
ENDBRANCH   1   2
BRANCH   1  16
ATOM     16  C13 <0> d   1      -0.785   1.673  -3.609  0.00  0.00    -0.011 A 
ATOM     17  C17 <0> d   1      -2.158   1.310  -3.966  0.00  0.00     0.009 A 
ATOM     18  C16 <0> d   1      -2.753   1.913  -5.089  0.00  0.00     0.093 A 
ATOM     19  C18 <0> d   1      -2.879   0.382  -3.205  0.00  0.00     0.054 A 
ATOM     20  O2  <0> d   1      -2.051   2.803  -5.824  0.00  0.00    -0.275 OA
ATOM     21  C21 <0> d   1      -4.056   1.584  -5.433  0.00  0.00     0.078 A 
ATOM     22  C15 <0> d   1      -0.791   3.136  -5.505  0.00  0.00     0.288 A 
ATOM     23  C14 <0> d   1      -0.136   2.575  -4.390  0.00  0.00     0.092 A 
ATOM     24  O1  <0> d   1      -0.197   3.944  -6.197  0.00  0.00    -0.260 OA
ATOM     25  C20 <0> d   1      -4.760   0.659  -4.682  0.00  0.00     0.107 A 
ATOM     26  C19 <0> d   1      -4.171   0.061  -3.562  0.00  0.00     0.106 A 
ATOM     27  O3  <0> d   1      -6.028   0.174  -4.814  0.00  0.00    -0.323 OA
ATOM     28  O4  <0> d   1      -5.075  -0.795  -3.000  0.00  0.00    -0.323 OA
ATOM     29  C22 <0> d   1      -6.353  -0.409  -3.539  0.00  0.00     0.352 C 
ENDBRANCH   1  16
TORSDOF 4
