REMARK  8 active torsions:
REMARK  status: ('A' for Active; 'I' for Inactive)
REMARK    1  A    between atoms: C2_2  and  C3_3 
REMARK    2  A    between atoms: C3_3  and  N1_4 
REMARK    3  A    between atoms: N1_4  and  C4_5 
REMARK    4  A    between atoms: N1_4  and  C7_8 
REMARK    5  A    between atoms: C4_5  and  C5_6 
REMARK    6  A    between atoms: C7_8  and  C8_9 
REMARK    7  A    between atoms: C9_10  and  O3_30 
REMARK    8  A    between atoms: C15_17  and  C16_18 
ROOT
ATOM      1  C8  <0> d   1       2.592  10.393  -0.358  0.00  0.00     0.036 A 
ATOM      2  C9  <0> d   1       2.653  11.770  -0.501  0.00  0.00     0.076 A 
ATOM      3  C10 <0> d   1       1.489  12.534  -0.501  0.00  0.00     0.038 A 
ATOM      4  C11 <0> d   1       0.271  11.931  -0.360  0.00  0.00     0.021 A 
ATOM      5  C12 <0> d   1       0.194  10.546  -0.214  0.00  0.00     0.051 A 
ATOM      6  C13 <0> d   1       1.362   9.766  -0.213  0.00  0.00     0.101 A 
ATOM      7  O1  <0> d   1       1.019   8.469  -0.060  0.00  0.00    -0.305 OA
ATOM      8  C14 <0> d   1      -0.323   8.322   0.044  0.00  0.00     0.128 A 
ATOM      9  C15 <0> d   1      -0.984   7.141   0.207  0.00  0.00     0.055 C 
ATOM     10  C25 <0> d   1      -0.926   9.604  -0.050  0.00  0.00     0.218 A 
ATOM     11  O2  <0> d   1      -2.116   9.868  -0.004  0.00  0.00    -0.284 OA
ENDROOT
BRANCH   9  12
ATOM     12  C16 <0> d   1      -0.234   5.889   0.283  0.00  0.00    -0.005 A 
ATOM     13  C19 <0> d   1      -0.791   4.533   0.456  0.00  0.00     0.002 A 
ATOM     14  C18 <0> d   1       0.310   3.662   0.470  0.00  0.00     0.045 A 
ATOM     15  C20 <0> d   1      -2.081   4.030   0.592  0.00  0.00     0.014 A 
ATOM     16  N2  <0> d   1       1.451   4.424   0.317  0.00  0.00    -0.360 N 
ATOM     17  C23 <0> d   1       0.096   2.296   0.621  0.00  0.00     0.030 A 
ATOM     18  C17 <0> d   1       1.134   5.738   0.207  0.00  0.00     0.103 A 
ATOM     19  C24 <0> d   1       2.814   3.889   0.280  0.00  0.00     0.156 C 
ATOM     20  C22 <0> d   1      -1.187   1.811   0.755  0.00  0.00     0.002 A 
ATOM     21  C21 <0> d   1      -2.273   2.673   0.735  0.00  0.00     0.001 A 
ENDBRANCH   9  12
BRANCH   1  22
ATOM     22  C7  <0> d   1       3.859   9.578  -0.361  0.00  0.00     0.279 C 
BRANCH  22  23
ATOM     23  N1  <0> d   1       4.091   9.037  -1.707  0.00  0.00    -0.067 N 
ATOM     24  H28 <0> d   1       3.178   8.511  -2.022  0.00  0.00     0.280 HD
BRANCH  23  25
ATOM     25  C3  <0> d   1       4.345  10.116  -2.671  0.00  0.00     0.234 C 
BRANCH  25  26
ATOM     26  C2  <0> d   1       4.185   9.577  -4.094  0.00  0.00     0.023 C 
ATOM     27  C1  <0> d   1       4.450  10.701  -5.098  0.00  0.00     0.007 C 
ENDBRANCH  25  26
ENDBRANCH  23  25
BRANCH  23  28
ATOM     28  C4  <0> d   1       5.193   8.066  -1.702  0.00  0.00     0.234 C 
BRANCH  28  29
ATOM     29  C5  <0> d   1       4.707   6.747  -1.098  0.00  0.00     0.023 C 
ATOM     30  C6  <0> d   1       5.866   5.749  -1.052  0.00  0.00     0.007 C 
ENDBRANCH  28  29
ENDBRANCH  23  28
ENDBRANCH  22  23
ENDBRANCH   1  22
BRANCH   2  31
ATOM     31  O3  <0> d   1       3.858  12.380  -0.643  0.00  0.00    -0.360 OA
ATOM     32  H29 <0> d   1       3.911  13.473  -0.757  0.00  0.00     0.217 HD
ENDBRANCH   2  31
TORSDOF 8
