REMARK  4 active torsions:
REMARK  status: ('A' for Active; 'I' for Inactive)
REMARK    1  A    between atoms: C3_3  and  C23_29 
REMARK    2  A    between atoms: C8_9  and  O4_28 
REMARK    3  A    between atoms: C9_10  and  C11_13 
REMARK    4  A    between atoms: C11_13  and  N1_14 
ROOT
ATOM      1  C1  <0> d   1      -4.490   0.432   4.952  0.00  0.00     0.077 C 
ATOM      2  C2  <0> d   1      -4.525  -0.548   3.807  0.00  0.00     0.065 A 
ATOM      3  C3  <0> d   1      -4.628  -1.873   4.086  0.00  0.00     0.054 A 
ATOM      4  C4  <0> d   1      -4.663  -2.831   2.967  0.00  0.00     0.198 A 
ATOM      5  O1  <0> d   1      -4.754  -4.031   3.156  0.00  0.00    -0.286 OA
ATOM      6  C5  <0> d   1      -4.583  -2.266   1.607  0.00  0.00     0.050 A 
ATOM      7  C6  <0> d   1      -4.608  -3.088   0.480  0.00  0.00     0.021 A 
ATOM      8  C7  <0> d   1      -4.531  -2.532  -0.765  0.00  0.00     0.038 A 
ATOM      9  C8  <0> d   1      -4.434  -1.150  -0.914  0.00  0.00     0.076 A 
ATOM     10  C9  <0> d   1      -4.403  -0.322   0.195  0.00  0.00     0.038 A 
ATOM     11  C10 <0> d   1      -4.480  -0.871   1.469  0.00  0.00     0.100 A 
ATOM     12  O2  <0> d   1      -4.455  -0.079   2.559  0.00  0.00    -0.313 OA
ENDROOT
BRANCH  10  13
ATOM     13  C11 <0> d   1      -4.292   1.171   0.021  0.00  0.00     0.316 C 
BRANCH  13  14
ATOM     14  N1  <0> d   1      -2.875   1.558   0.006  0.00  0.00     0.093 N 
ATOM     15  C16 <0> d   1      -2.194   1.016  -1.180  0.00  0.00     0.283 C 
ATOM     16  C15 <0> d   1      -0.773   1.603  -1.219  0.00  0.00     0.065 C 
ATOM     17  C14 <0> d   1      -0.013   1.086   0.008  0.00  0.00     0.020 C 
ATOM     18  C17 <0> d   1      -0.901   3.107  -1.127  0.00  0.00     0.020 A 
ATOM     19  C13 <0> d   1      -0.748   1.589   1.253  0.00  0.00     0.033 C 
ATOM     20  C12 <0> d   1      -2.203   1.140   1.240  0.00  0.00     0.279 C 
ATOM     21  C22 <0> d   1      -0.621   3.100   1.338  0.00  0.00     0.138 C 
ATOM     22  N2  <0> d   1      -0.901   3.757   0.061  0.00  0.00    -0.317 N 
ATOM     23  C21 <0> d   1      -1.152   5.090   0.099  0.00  0.00     0.247 A 
ATOM     24  C20 <0> d   1      -1.283   5.829  -1.086  0.00  0.00     0.074 A 
ATOM     25  O3  <0> d   1      -1.265   5.651   1.177  0.00  0.00    -0.268 OA
ATOM     26  C19 <0> d   1      -1.206   5.182  -2.285  0.00  0.00     0.007 A 
ATOM     27  C18 <0> d   1      -1.021   3.795  -2.293  0.00  0.00     0.026 A 
ENDBRANCH  13  14
ENDBRANCH  10  13
BRANCH   9  28
ATOM     28  O4  <0> d   1      -4.365  -0.610  -2.158  0.00  0.00    -0.360 OA
ATOM     29  H21 <0> d   1      -4.289   0.480  -2.281  0.00  0.00     0.217 HD
ENDBRANCH   9  28
BRANCH   3  30
ATOM     30  C23 <0> d   1      -4.702  -2.348   5.489  0.00  0.00    -0.019 A 
ATOM     31  C28 <0> d   1      -5.856  -2.975   5.955  0.00  0.00     0.012 A 
ATOM     32  C27 <0> d   1      -5.920  -3.414   7.262  0.00  0.00     0.001 A 
ATOM     33  C26 <0> d   1      -4.841  -3.233   8.108  0.00  0.00     0.000 A 
ATOM     34  C25 <0> d   1      -3.693  -2.611   7.651  0.00  0.00     0.001 A 
ATOM     35  C24 <0> d   1      -3.616  -2.173   6.345  0.00  0.00     0.012 A 
ENDBRANCH   3  30
TORSDOF 4
