REMARK  6 active torsions:
REMARK  status: ('A' for Active; 'I' for Inactive)
REMARK    1  A    between atoms: N1_4  and  C7_9 
REMARK    2  A    between atoms: C7_9  and  C8_10 
REMARK    3  A    between atoms: C8_10  and  O2_11 
REMARK    4  A    between atoms: O2_11  and  C9_12 
REMARK    5  A    between atoms: C12_15  and  C15_19 
REMARK    6  A    between atoms: C16_20  and  C18_25 
ROOT
ATOM      1  C9  <0> d   1      -2.071  -6.104   0.849  0.00  0.00     0.071 A 
ATOM      2  C10 <0> d   1      -2.276  -6.711  -0.383  0.00  0.00     0.038 A 
ATOM      3  C11 <0> d   1      -2.136  -8.076  -0.515  0.00  0.00     0.019 A 
ATOM      4  C12 <0> d   1      -1.788  -8.851   0.590  0.00  0.00     0.032 A 
ATOM      5  C13 <0> d   1      -1.582  -8.239   1.830  0.00  0.00     0.122 A 
ATOM      6  C14 <0> d   1      -1.719  -6.867   1.953  0.00  0.00     0.077 A 
ATOM      7  O3  <0> d   1      -1.243  -8.989   2.911  0.00  0.00    -0.191 OA
ENDROOT
BRANCH   4   8
ATOM      8  C15 <0> d   1      -1.637 -10.319   0.450  0.00  0.00     0.102 A 
ATOM      9  C16 <0> d   1      -2.556 -11.197  -0.176  0.00  0.00     0.022 A 
ATOM     10  C17 <0> d   1      -2.043 -12.457  -0.090  0.00  0.00     0.124 A 
ATOM     11  N2  <0> d   1      -0.862 -12.379   0.556  0.00  0.00    -0.288 N 
ATOM     12  H3  <0> d   1      -0.276 -13.124   0.759  0.00  0.00     0.188 HD
ATOM     13  N3  <0> d   1      -0.623 -11.038   0.881  0.00  0.00    -0.174 NA
BRANCH   9  14
ATOM     14  C18 <0> d   1      -3.842 -10.815  -0.810  0.00  0.00    -0.022 A 
ATOM     15  C23 <0> d   1      -4.111 -11.186  -2.126  0.00  0.00     0.014 A 
ATOM     16  C22 <0> d   1      -5.311 -10.834  -2.709  0.00  0.00     0.024 A 
ATOM     17  C21 <0> d   1      -6.243 -10.103  -1.992  0.00  0.00     0.034 A 
ATOM     18  C20 <0> d   1      -5.979  -9.727  -0.686  0.00  0.00     0.024 A 
ATOM     19 Cl1  <0> d   1      -7.748  -9.656  -2.733  0.00  0.00    -0.084 Cl
ATOM     20  C19 <0> d   1      -4.784 -10.080  -0.092  0.00  0.00     0.014 A 
ENDBRANCH   9  14
ENDBRANCH   4   8
BRANCH   1  21
ATOM     21  O2  <0> d   1      -2.211  -4.758   0.973  0.00  0.00    -0.349 OA
BRANCH  21  22
ATOM     22  C8  <0> d   1      -2.575  -4.032  -0.203  0.00  0.00     0.206 C 
BRANCH  22  23
ATOM     23  C7  <0> d   1      -2.684  -2.543   0.130  0.00  0.00     0.299 C 
BRANCH  23  24
ATOM     24  N1  <0> d   1      -1.367  -2.034   0.533  0.00  0.00     0.095 N 
ATOM     25  C3  <0> d   1      -0.493  -1.849  -0.635  0.00  0.00     0.303 C 
ATOM     26  C2  <0> d   1       0.884  -1.375  -0.165  0.00  0.00     0.146 C 
ATOM     27  C1  <0> d   1       1.773  -1.104  -1.380  0.00  0.00     0.041 C 
ATOM     28  O1  <0> d   1       0.737  -0.173   0.597  0.00  0.00    -0.378 OA
ATOM     29  C5  <0> d   1      -0.108  -0.318   1.742  0.00  0.00     0.146 C 
ATOM     30  C4  <0> d   1      -1.496  -0.780   1.291  0.00  0.00     0.303 C 
ATOM     31  C6  <0> d   1       0.492  -1.355   2.693  0.00  0.00     0.041 C 
ENDBRANCH  23  24
ENDBRANCH  22  23
ENDBRANCH  21  22
ENDBRANCH   1  21
TORSDOF 6
