REMARK  6 active torsions:
REMARK  status: ('A' for Active; 'I' for Inactive)
REMARK    1  A    between atoms: C2_2  and  C3_3 
REMARK    2  A    between atoms: C8_8  and  O1_9 
REMARK    3  A    between atoms: C9_11  and  C20_25 
REMARK    4  A    between atoms: C10_12  and  C12_15 
REMARK    5  A    between atoms: C20_25  and  C21_26 
REMARK    6  A    between atoms: C21_26  and  C22_27 
ROOT
ATOM      1  C3  <0> d   1      -1.255  -1.986   0.809  0.00  0.00    -0.024 A 
ATOM      2  C4  <0> d   1      -1.307  -0.640   0.582  0.00  0.00     0.028 A 
ATOM      3  C5  <0> d   1      -0.128   0.068   0.347  0.00  0.00     0.050 A 
ATOM      4  C6  <0> d   1       1.112  -0.596   0.342  0.00  0.00     0.092 A 
ATOM      5  C7  <0> d   1       1.146  -1.964   0.573  0.00  0.00     0.075 A 
ATOM      6  C8  <0> d   1      -0.033  -2.654   0.806  0.00  0.00     0.074 A 
ATOM      7  O2  <0> d   1       2.250   0.089   0.113  0.00  0.00    -0.313 OA
ATOM      8  C9  <0> d   1       2.282   1.402  -0.118  0.00  0.00     0.072 A 
ATOM      9  C10 <0> d   1       1.157   2.169  -0.140  0.00  0.00     0.089 A 
ATOM     10  C11 <0> d   1      -0.146   1.521   0.098  0.00  0.00     0.201 A 
ATOM     11  O3  <0> d   1      -1.187   2.154   0.084  0.00  0.00    -0.286 OA
ENDROOT
BRANCH   9  12
ATOM     12  C12 <0> d   1       1.240   3.620  -0.398  0.00  0.00     0.125 A 
ATOM     13  N2  <0> d   1       0.509   4.296  -1.339  0.00  0.00    -0.335 N 
ATOM     14  C18 <0> d   1       0.875   5.627  -1.262  0.00  0.00     0.062 A 
ATOM     15  C19 <0> d   1      -0.477   3.717  -2.254  0.00  0.00     0.158 C 
ATOM     16  C13 <0> d   1       1.850   5.709  -0.253  0.00  0.00     0.060 A 
ATOM     17  C17 <0> d   1       0.489   6.772  -1.943  0.00  0.00     0.032 A 
ATOM     18  N1  <0> d   1       2.029   4.456   0.235  0.00  0.00    -0.340 N 
ATOM     19  C14 <0> d   1       2.421   6.948   0.053  0.00  0.00     0.032 A 
ATOM     20  H20 <0> d   1       2.697   4.088   1.028  0.00  0.00     0.167 HD
ATOM     21  C15 <0> d   1       2.027   8.065  -0.628  0.00  0.00     0.002 A 
ATOM     22  C16 <0> d   1       1.065   7.984  -1.625  0.00  0.00     0.002 A 
ENDBRANCH   9  12
BRANCH   8  23
ATOM     23  C20 <0> d   1       3.615   2.062  -0.361  0.00  0.00     0.077 C 
BRANCH  23  24
ATOM     24  C21 <0> d   1       4.266   2.406   0.980  0.00  0.00     0.119 C 
BRANCH  24  25
ATOM     25  C22 <0> d   1       5.599   3.067   0.736  0.00  0.00     0.172 C 
ATOM     26  O4  <0> d   1       5.987   3.244  -0.394  0.00  0.00    -0.648 OA
ATOM     27  O5  <0> d   1       6.354   3.458   1.775  0.00  0.00    -0.648 OA
ENDBRANCH  24  25
ENDBRANCH  23  24
ENDBRANCH   8  23
BRANCH   1  28
ATOM     28  C2  <0> d   1      -2.527  -2.753   1.063  0.00  0.00     0.037 C 
ATOM     29  C1  <0> d   1      -2.959  -3.464  -0.221  0.00  0.00     0.010 C 
ENDBRANCH   1  28
BRANCH   6  30
ATOM     30  O1  <0> d   1       0.004  -3.991   1.033  0.00  0.00    -0.360 OA
ATOM     31  H8  <0> d   1       0.967  -4.523   1.032  0.00  0.00     0.217 HD
ENDBRANCH   6  30
TORSDOF 6
