REMARK  6 active torsions:
REMARK  status: ('A' for Active; 'I' for Inactive)
REMARK    1  A    between atoms: C2_2  and  N1_3 
REMARK    2  A    between atoms: C4_5  and  C12_14 
REMARK    3  A    between atoms: C9_10  and  O1_12 
REMARK    4  A    between atoms: C18_21  and  O4_33 
REMARK    5  A    between atoms: C19_22  and  C21_25 
REMARK    6  A    between atoms: C21_25  and  N2_26 
ROOT
ATOM      1  C12 <0> d   1      -1.228  -3.330  -0.005  0.00  0.00     0.055 C 
ATOM      2  C13 <0> d   1      -0.491  -2.184  -0.006  0.00  0.00     0.128 A 
ATOM      3  C14 <0> d   1       0.927  -2.110  -0.019  0.00  0.00     0.218 A 
ATOM      4  O2  <0> d   1       1.718  -3.039  -0.032  0.00  0.00    -0.284 OA
ATOM      5  C15 <0> d   1       1.239  -0.670  -0.013  0.00  0.00     0.051 A 
ATOM      6  C16 <0> d   1       2.430   0.056  -0.020  0.00  0.00     0.021 A 
ATOM      7  C17 <0> d   1       2.395   1.421  -0.012  0.00  0.00     0.038 A 
ATOM      8  C18 <0> d   1       1.175   2.091   0.002  0.00  0.00     0.076 A 
ATOM      9  C19 <0> d   1      -0.017   1.384   0.010  0.00  0.00     0.036 A 
ATOM     10  C20 <0> d   1       0.002  -0.004   0.002  0.00  0.00     0.101 A 
ATOM     11  O3  <0> d   1      -0.987  -0.924   0.006  0.00  0.00    -0.305 OA
ENDROOT
BRANCH   1  12
ATOM     12  C4  <0> d   1      -2.688  -3.259   0.008  0.00  0.00    -0.005 A 
ATOM     13  C3  <0> d   1      -3.460  -2.118   0.021  0.00  0.00     0.103 A 
ATOM     14  N1  <0> d   1      -4.772  -2.459   0.031  0.00  0.00    -0.356 N 
ATOM     15  C6  <0> d   1      -4.915  -3.834   0.025  0.00  0.00     0.045 A 
ATOM     16  C5  <0> d   1      -3.629  -4.396   0.005  0.00  0.00     0.005 A 
ATOM     17  C7  <0> d   1      -6.026  -4.670   0.030  0.00  0.00     0.033 A 
ATOM     18  C10 <0> d   1      -3.470  -5.779   0.002  0.00  0.00     0.051 A 
ATOM     19  C9  <0> d   1      -4.585  -6.596   0.008  0.00  0.00     0.069 A 
ATOM     20  C8  <0> d   1      -5.860  -6.038   0.022  0.00  0.00     0.039 A 
BRANCH  14  21
ATOM     21  C2  <0> d   1      -5.883  -1.505   0.045  0.00  0.00     0.124 C 
ATOM     22  C1  <0> d   1      -6.340  -1.275   1.487  0.00  0.00     0.027 C 
ENDBRANCH  14  21
BRANCH  19  23
ATOM     23  O1  <0> d   1      -4.437  -7.947   0.000  0.00  0.00    -0.356 OA
ATOM     24  C11 <0> d   1      -5.631  -8.731   0.007  0.00  0.00     0.210 C 
ENDBRANCH  19  23
ENDBRANCH   1  12
BRANCH   9  25
ATOM     25  C21 <0> d   1      -1.331   2.121   0.020  0.00  0.00     0.279 C 
BRANCH  25  26
ATOM     26  N2  <0> d   1      -1.752   2.353   1.408  0.00  0.00    -0.067 N 
ATOM     27  C27 <0> d   1      -2.908   3.275   1.465  0.00  0.00     0.235 C 
ATOM     28  C26 <0> d   1      -4.225   2.573   1.281  0.00  0.00     0.028 C 
ATOM     29  C25 <0> d   1      -4.792   2.223   2.674  0.00  0.00     0.002 C 
ATOM     30  C24 <0> d   1      -4.152   1.044   3.248  0.00  0.00     0.002 C 
ATOM     31  C23 <0> d   1      -2.635   1.245   3.451  0.00  0.00     0.028 C 
ATOM     32  C22 <0> d   1      -1.949   1.072   2.123  0.00  0.00     0.235 C 
ATOM     33  H30 <0> d   1      -0.940   2.866   1.944  0.00  0.00     0.280 HD
ENDBRANCH  25  26
ENDBRANCH   9  25
BRANCH   8  34
ATOM     34  O4  <0> d   1       1.152   3.449   0.009  0.00  0.00    -0.360 OA
ATOM     35  H31 <0> d   1       0.190   3.982   0.020  0.00  0.00     0.217 HD
ENDBRANCH   8  34
TORSDOF 6
