REMARK  5 active torsions:
REMARK  status: ('A' for Active; 'I' for Inactive)
REMARK    1  A    between atoms: C2_2  and  C4_4 
REMARK    2  A    between atoms: C10_10  and  C13_15 
REMARK    3  A    between atoms: C13_15  and  N1_16 
REMARK    4  A    between atoms: N2_19  and  C18_22 
REMARK    5  A    between atoms: C18_22  and  C19_23 
ROOT
ATOM      1  C13 <0> d   1      -2.780  -3.027  -3.246  0.00  0.00     0.312 C 
ENDROOT
BRANCH   1   2
ATOM      2  C10 <0> d   1      -3.664  -2.649  -2.086  0.00  0.00    -0.011 A 
ATOM      3  C8  <0> d   1      -3.163  -1.799  -1.002  0.00  0.00     0.007 A 
ATOM      4  C7  <0> d   1      -4.023  -1.471   0.060  0.00  0.00     0.090 A 
ATOM      5  C9  <0> d   1      -1.852  -1.312  -1.015  0.00  0.00     0.022 A 
ATOM      6  C6  <0> d   1      -3.555  -0.666   1.092  0.00  0.00     0.039 A 
ATOM      7  O2  <0> d   1      -5.290  -1.939   0.069  0.00  0.00    -0.275 OA
ATOM      8  C5  <0> d   1      -2.258  -0.200   1.063  0.00  0.00     0.010 A 
ATOM      9  C4  <0> d   1      -1.412  -0.526   0.013  0.00  0.00    -0.054 A 
ATOM     10  C12 <0> d   1      -5.756  -2.716  -0.920  0.00  0.00     0.288 A 
ATOM     11  C11 <0> d   1      -4.948  -3.085  -2.017  0.00  0.00     0.092 A 
ATOM     12  O1  <0> d   1      -6.906  -3.115  -0.870  0.00  0.00    -0.260 OA
BRANCH   9  13
ATOM     13  C2  <0> d   1       0.002  -0.004   0.002  0.00  0.00     0.010 C 
ATOM     14  C1  <0> d   1      -0.019   1.526   0.010  0.00  0.00     0.015 C 
ATOM     15  C3  <0> d   1       0.742  -0.511   1.242  0.00  0.00     0.015 C 
ENDBRANCH   9  13
ENDBRANCH   1   2
BRANCH   1  16
ATOM     16  N1  <0> d   1      -2.821  -1.964  -4.260  0.00  0.00     0.096 N 
ATOM     17  C17 <0> d   1      -1.796  -2.180  -5.291  0.00  0.00     0.300 C 
ATOM     18  C16 <0> d   1      -1.833  -1.024  -6.293  0.00  0.00     0.265 C 
ATOM     19  N2  <0> d   1      -3.164  -0.951  -6.908  0.00  0.00    -0.064 N 
ATOM     20  C15 <0> d   1      -4.174  -0.710  -5.869  0.00  0.00     0.265 C 
ATOM     21  H29 <0> d   1      -3.366  -1.821  -7.378  0.00  0.00     0.280 HD
ATOM     22  C14 <0> d   1      -4.157  -1.864  -4.864  0.00  0.00     0.300 C 
BRANCH  19  23
ATOM     23  C18 <0> d   1      -3.193   0.149  -7.883  0.00  0.00     0.273 C 
BRANCH  23  24
ATOM     24  C19 <0> d   1      -2.245  -0.157  -9.013  0.00  0.00    -0.033 A 
ATOM     25  C24 <0> d   1      -2.694  -0.846 -10.124  0.00  0.00     0.009 A 
ATOM     26  C23 <0> d   1      -1.826  -1.123 -11.164  0.00  0.00     0.001 A 
ATOM     27  C22 <0> d   1      -0.506  -0.719 -11.088  0.00  0.00     0.000 A 
ATOM     28  C21 <0> d   1      -0.056  -0.035  -9.974  0.00  0.00     0.001 A 
ATOM     29  C20 <0> d   1      -0.925   0.246  -8.937  0.00  0.00     0.009 A 
ENDBRANCH  23  24
ENDBRANCH  19  23
ENDBRANCH   1  16
TORSDOF 5
