REMARK  9 active torsions:
REMARK  status: ('A' for Active; 'I' for Inactive)
REMARK    1  A    between atoms: C6_6  and  O6_33 
REMARK    2  A    between atoms: C7_7  and  C19_23 
REMARK    3  A    between atoms: C10_12  and  C11_13 
REMARK    4  A    between atoms: C14_16  and  O4_21 
REMARK    5  A    between atoms: C15_17  and  O3_19 
REMARK    6  A    between atoms: C19_23  and  N1_24 
REMARK    7  A    between atoms: N2_27  and  C24_30 
REMARK    8  A    between atoms: C24_30  and  C25_31 
REMARK    9  A    between atoms: C25_31  and  O5_32 
ROOT
ATOM      1  C1  <0> d   1      -0.018   1.503   0.010  0.00  0.00     0.050 C 
ATOM      2  C2  <0> d   1       0.002  -0.004   0.002  0.00  0.00    -0.032 C 
ATOM      3  C3  <0> d   1      -1.206  -0.749   0.004  0.00  0.00     0.006 A 
ATOM      4  C4  <0> d   1      -2.438  -0.107  -0.189  0.00  0.00     0.017 A 
ATOM      5  C5  <0> d   1      -3.588  -0.839  -0.225  0.00  0.00     0.038 A 
ATOM      6  C6  <0> d   1      -3.550  -2.223  -0.064  0.00  0.00     0.076 A 
ATOM      7  C7  <0> d   1      -2.345  -2.873   0.146  0.00  0.00     0.038 A 
ATOM      8  C8  <0> d   1      -1.168  -2.143   0.192  0.00  0.00     0.101 A 
ATOM      9  O1  <0> d   1       0.014  -2.760   0.438  0.00  0.00    -0.273 OA
ATOM     10  C9  <0> d   1       1.125  -2.163  -0.050  0.00  0.00     0.300 C 
ATOM     11  O2  <0> d   1       2.042  -2.819  -0.510  0.00  0.00    -0.259 OA
ATOM     12  C10 <0> d   1       1.190  -0.693  -0.013  0.00  0.00     0.057 C 
ENDROOT
BRANCH   7  13
ATOM     13  C19 <0> d   1      -2.314  -4.370   0.325  0.00  0.00     0.317 C 
BRANCH  13  14
ATOM     14  N1  <0> d   1      -2.152  -5.016  -0.985  0.00  0.00     0.096 N 
ATOM     15  C23 <0> d   1      -1.880  -6.452  -0.834  0.00  0.00     0.303 C 
ATOM     16  C22 <0> d   1      -1.639  -7.071  -2.212  0.00  0.00     0.302 C 
ATOM     17  N2  <0> d   1      -2.819  -6.847  -3.060  0.00  0.00     0.093 N 
ATOM     18  C21 <0> d   1      -3.090  -5.411  -3.211  0.00  0.00     0.302 C 
ATOM     19  C20 <0> d   1      -3.331  -4.792  -1.832  0.00  0.00     0.303 C 
BRANCH  17  20
ATOM     20  C24 <0> d   1      -2.656  -7.493  -4.369  0.00  0.00     0.298 C 
BRANCH  20  21
ATOM     21  C25 <0> d   1      -2.625  -9.012  -4.188  0.00  0.00     0.194 C 
BRANCH  21  22
ATOM     22  O5  <0> d   1      -3.891  -9.460  -3.700  0.00  0.00    -0.399 OA
ATOM     23  H29 <0> d   1      -3.944 -10.415  -3.561  0.00  0.00     0.209 HD
ENDBRANCH  21  22
ENDBRANCH  20  21
ENDBRANCH  17  20
ENDBRANCH  13  14
ENDBRANCH   7  13
BRANCH   6  24
ATOM     24  O6  <0> d   1      -4.703  -2.939  -0.113  0.00  0.00    -0.360 OA
ATOM     25  H30 <0> d   1      -4.938  -3.245  -1.000  0.00  0.00     0.217 HD
ENDBRANCH   6  24
BRANCH  12  26
ATOM     26  C11 <0> d   1       2.490   0.018   0.012  0.00  0.00    -0.017 A 
ATOM     27  C16 <0> d   1       3.343  -0.125   1.106  0.00  0.00     0.052 A 
ATOM     28  C15 <0> d   1       4.558   0.535   1.122  0.00  0.00     0.102 A 
ATOM     29  C14 <0> d   1       4.922   1.351   0.053  0.00  0.00     0.101 A 
ATOM     30  C13 <0> d   1       4.070   1.498  -1.031  0.00  0.00     0.040 A 
ATOM     31  C12 <0> d   1       2.859   0.836  -1.055  0.00  0.00     0.015 A 
BRANCH  28  32
ATOM     32  O3  <0> d   1       5.396   0.393   2.184  0.00  0.00    -0.353 OA
ATOM     33  C17 <0> d   1       4.958  -0.459   3.245  0.00  0.00     0.210 C 
ENDBRANCH  28  32
BRANCH  29  34
ATOM     34  O4  <0> d   1       6.114   2.004   0.073  0.00  0.00    -0.353 OA
ATOM     35  C18 <0> d   1       6.424   2.823  -1.056  0.00  0.00     0.210 C 
ENDBRANCH  29  34
ENDBRANCH  12  26
TORSDOF 9
