REMARK  5 active torsions:
REMARK  status: ('A' for Active; 'I' for Inactive)
REMARK    1  A    between atoms: C3_4  and  C11_13 
REMARK    2  A    between atoms: C8_9  and  O1_11 
REMARK    3  A    between atoms: C17_20  and  O4_32 
REMARK    4  A    between atoms: C18_21  and  C20_24 
REMARK    5  A    between atoms: C20_24  and  N2_25 
ROOT
ATOM      1  C11 <0> d   1       0.039  -3.250  -1.665  0.00  0.00     0.055 C 
ATOM      2  C12 <0> d   1       0.031  -3.055  -3.014  0.00  0.00     0.128 A 
ATOM      3  C13 <0> d   1       0.035  -4.077  -4.000  0.00  0.00     0.218 A 
ATOM      4  O2  <0> d   1       0.046  -5.284  -3.817  0.00  0.00    -0.284 OA
ATOM      5  C14 <0> d   1       0.021  -3.368  -5.291  0.00  0.00     0.051 A 
ATOM      6  C15 <0> d   1       0.017  -3.792  -6.620  0.00  0.00     0.021 A 
ATOM      7  C16 <0> d   1       0.003  -2.870  -7.628  0.00  0.00     0.038 A 
ATOM      8  C17 <0> d   1      -0.007  -1.509  -7.333  0.00  0.00     0.076 A 
ATOM      9  C18 <0> d   1      -0.004  -1.074  -6.018  0.00  0.00     0.038 A 
ATOM     10  C19 <0> d   1       0.010  -1.998  -4.982  0.00  0.00     0.101 A 
ATOM     11  O3  <0> d   1       0.011  -1.855  -3.640  0.00  0.00    -0.305 OA
ENDROOT
BRANCH   1  12
ATOM     12  C3  <0> d   1       0.028  -2.102  -0.761  0.00  0.00    -0.005 A 
ATOM     13  C2  <0> d   1       0.008  -0.770  -1.116  0.00  0.00     0.103 A 
ATOM     14  N1  <0> d   1       0.002  -0.004   0.002  0.00  0.00    -0.360 N 
ATOM     15  C1  <0> d   1      -0.018   1.461   0.010  0.00  0.00     0.156 C 
ATOM     16  C5  <0> d   1       0.024  -0.797   1.133  0.00  0.00     0.045 A 
ATOM     17  C4  <0> d   1       0.035  -2.137   0.714  0.00  0.00     0.005 A 
ATOM     18  C6  <0> d   1       0.032  -0.507   2.494  0.00  0.00     0.033 A 
ATOM     19  C9  <0> d   1       0.053  -3.164   1.654  0.00  0.00     0.051 A 
ATOM     20  C8  <0> d   1       0.070  -2.857   3.002  0.00  0.00     0.069 A 
ATOM     21  C7  <0> d   1       0.055  -1.529   3.417  0.00  0.00     0.039 A 
BRANCH  20  22
ATOM     22  O1  <0> d   1       0.092  -3.855   3.925  0.00  0.00    -0.356 OA
ATOM     23  C10 <0> d   1       0.099  -3.467   5.300  0.00  0.00     0.210 C 
ENDBRANCH  20  22
ENDBRANCH   1  12
BRANCH   9  24
ATOM     24  C20 <0> d   1      -0.014   0.402  -5.712  0.00  0.00     0.317 C 
BRANCH  24  25
ATOM     25  N2  <0> d   1      -1.403   0.870  -5.605  0.00  0.00     0.096 N 
ATOM     26  C24 <0> d   1      -1.461   2.337  -5.544  0.00  0.00     0.303 C 
ATOM     27  C23 <0> d   1      -2.924   2.786  -5.514  0.00  0.00     0.302 C 
ATOM     28  N3  <0> d   1      -3.593   2.186  -4.351  0.00  0.00     0.087 N 
ATOM     29  C22 <0> d   1      -3.535   0.719  -4.412  0.00  0.00     0.302 C 
ATOM     30  C25 <0> d   1      -4.982   2.654  -4.245  0.00  0.00     0.310 C 
ATOM     31  C21 <0> d   1      -2.072   0.270  -4.443  0.00  0.00     0.303 C 
ENDBRANCH  24  25
ENDBRANCH   9  24
BRANCH   8  32
ATOM     32  O4  <0> d   1      -0.020  -0.602  -8.343  0.00  0.00    -0.360 OA
ATOM     33  H27 <0> d   1      -0.907  -0.347  -8.631  0.00  0.00     0.217 HD
ENDBRANCH   8  32
TORSDOF 5
