REMARK  4 active torsions:
REMARK  status: ('A' for Active; 'I' for Inactive)
REMARK    1  A    between atoms: C2_2  and  N1_3 
REMARK    2  A    between atoms: N2_6  and  C7_9 
REMARK    3  A    between atoms: C7_9  and  C8_10 
REMARK    4  A    between atoms: C15_18  and  C16_19 
ROOT
ATOM      1  C8  <0> d   1       2.509   3.561   1.582  0.00  0.00     0.041 A 
ATOM      2  C9  <0> d   1       2.281   4.458   0.551  0.00  0.00     0.118 A 
ATOM      3  C10 <0> d   1       2.288   5.830   0.791  0.00  0.00     0.041 A 
ATOM      4  C11 <0> d   1       2.534   6.305   2.048  0.00  0.00     0.021 A 
ATOM      5  C12 <0> d   1       2.771   5.414   3.095  0.00  0.00     0.051 A 
ATOM      6  C13 <0> d   1       2.760   4.028   2.866  0.00  0.00     0.101 A 
ATOM      7  O1  <0> d   1       3.014   3.373   4.021  0.00  0.00    -0.305 OA
ATOM      8  C14 <0> d   1       3.204   4.228   5.053  0.00  0.00     0.128 A 
ATOM      9  C15 <0> d   1       3.475   3.886   6.337  0.00  0.00     0.053 C 
ATOM     10  C23 <0> d   1       3.061   5.596   4.529  0.00  0.00     0.218 A 
ATOM     11  O2  <0> d   1       3.159   6.644   5.142  0.00  0.00    -0.284 OA
ATOM     12  O3  <0> d   1       2.042   3.996  -0.702  0.00  0.00    -0.191 OA
ENDROOT
BRANCH   1  13
ATOM     13  C7  <0> d   1       2.492   2.079   1.309  0.00  0.00     0.317 C 
BRANCH  13  14
ATOM     14  N2  <0> d   1       1.129   1.563   1.499  0.00  0.00     0.096 N 
ATOM     15  C4  <0> d   1       0.213   2.112   0.490  0.00  0.00     0.300 C 
ATOM     16  C3  <0> d   1      -1.207   1.613   0.769  0.00  0.00     0.265 C 
ATOM     17  N1  <0> d   1      -1.221   0.144   0.745  0.00  0.00    -0.068 N 
ATOM     18  C6  <0> d   1      -0.304  -0.405   1.754  0.00  0.00     0.265 C 
ATOM     19  H26 <0> d   1      -0.871  -0.183  -0.245  0.00  0.00     0.280 HD
ATOM     20  C5  <0> d   1       1.115   0.093   1.475  0.00  0.00     0.300 C 
BRANCH  17  21
ATOM     21  C2  <0> d   1      -2.583  -0.373   0.934  0.00  0.00     0.230 C 
ATOM     22  C1  <0> d   1      -2.601  -1.877   0.657  0.00  0.00     0.034 C 
ENDBRANCH  17  21
ENDBRANCH  13  14
ENDBRANCH   1  13
BRANCH   9  23
ATOM     23  C16 <0> d   1       3.432   2.475   6.746  0.00  0.00    -0.028 A 
ATOM     24  C21 <0> d   1       3.362   2.138   8.103  0.00  0.00    -0.052 A 
ATOM     25  C20 <0> d   1       3.318   0.812   8.478  0.00  0.00     0.007 A 
ATOM     26  C22 <0> d   1       3.330   3.221   9.150  0.00  0.00     0.049 C 
ATOM     27  C19 <0> d   1       3.352  -0.184   7.518  0.00  0.00     0.001 A 
ATOM     28  C18 <0> d   1       3.427   0.141   6.175  0.00  0.00     0.001 A 
ATOM     29  C17 <0> d   1       3.467   1.461   5.782  0.00  0.00     0.012 A 
ENDBRANCH   9  23
TORSDOF 4
