REMARK  10 active torsions:
REMARK  status: ('A' for Active; 'I' for Inactive)
REMARK    1  A    between atoms: C2_2  and  C3_3 
REMARK    2  A    between atoms: C3_3  and  O1_4 
REMARK    3  A    between atoms: O1_4  and  C4_5 
REMARK    4  A    between atoms: C4_5  and  C5_7 
REMARK    5  A    between atoms: C8_10  and  O3_13 
REMARK    6  A    between atoms: O3_13  and  C11_14 
REMARK    7  A    between atoms: C16_20  and  O6_37 
REMARK    8  A    between atoms: C17_21  and  C21_29 
REMARK    9  A    between atoms: C19_24  and  C20_25 
REMARK   10  A    between atoms: C21_29  and  N1_30 
ROOT
ATOM      1  C11 <0> d   1      -3.697   3.485   0.038  0.00  0.00     0.165 A 
ATOM      2  C12 <0> d   1      -2.522   4.289   0.046  0.00  0.00     0.221 A 
ATOM      3  O4  <0> d   1      -2.586   5.507   0.053  0.00  0.00    -0.284 OA
ATOM      4  C13 <0> d   1      -1.226   3.589   0.032  0.00  0.00     0.052 A 
ATOM      5  C14 <0> d   1      -0.020   4.292   0.024  0.00  0.00     0.021 A 
ATOM      6  C15 <0> d   1       1.162   3.607   0.010  0.00  0.00     0.038 A 
ATOM      7  C16 <0> d   1       1.169   2.214   0.003  0.00  0.00     0.076 A 
ATOM      8  C17 <0> d   1      -0.018   1.503   0.010  0.00  0.00     0.038 A 
ATOM      9  C18 <0> d   1      -1.228   2.183   0.020  0.00  0.00     0.101 A 
ATOM     10  O5  <0> d   1      -2.399   1.515   0.021  0.00  0.00    -0.301 OA
ATOM     11  C19 <0> d   1      -3.583   2.142   0.030  0.00  0.00     0.197 A 
ENDROOT
BRANCH   1  12
ATOM     12  O3  <0> d   1      -4.927   4.068   0.047  0.00  0.00    -0.304 OA
BRANCH  12  13
ATOM     13  C8  <0> d   1      -5.496   4.335   1.249  0.00  0.00     0.076 A 
ATOM     14  C7  <0> d   1      -6.752   4.930   1.305  0.00  0.00     0.038 A 
ATOM     15  C6  <0> d   1      -7.333   5.202   2.523  0.00  0.00     0.020 A 
ATOM     16  C5  <0> d   1      -6.659   4.879   3.705  0.00  0.00     0.039 A 
ATOM     17  C10 <0> d   1      -5.397   4.280   3.644  0.00  0.00     0.020 A 
ATOM     18  C9  <0> d   1      -4.825   4.007   2.422  0.00  0.00     0.038 A 
BRANCH  16  19
ATOM     19  C4  <0> d   1      -7.278   5.169   5.011  0.00  0.00     0.293 C 
ATOM     20  O2  <0> d   1      -8.375   5.690   5.062  0.00  0.00    -0.259 OA
BRANCH  19  21
ATOM     21  O1  <0> d   1      -6.627   4.856   6.149  0.00  0.00    -0.318 OA
BRANCH  21  22
ATOM     22  C3  <0> d   1      -7.296   5.170   7.399  0.00  0.00     0.178 C 
BRANCH  22  23
ATOM     23  C2  <0> d   1      -6.411   4.746   8.572  0.00  0.00     0.022 C 
ATOM     24  C1  <0> d   1      -7.116   5.077   9.889  0.00  0.00     0.007 C 
ENDBRANCH  22  23
ENDBRANCH  21  22
ENDBRANCH  19  21
ENDBRANCH  16  19
ENDBRANCH  12  13
ENDBRANCH   1  12
BRANCH  11  25
ATOM     25  C20 <0> d   1      -4.840   1.310   0.031  0.00  0.00     0.442 C 
ATOM     26  F1  <0> d   1      -5.235   1.060  -1.287  0.00  0.00    -0.164 F 
ATOM     27  F2  <0> d   1      -4.596   0.097   0.684  0.00  0.00    -0.164 F 
ATOM     28  F3  <0> d   1      -5.856   2.003   0.699  0.00  0.00    -0.164 F 
ENDBRANCH  11  25
BRANCH   8  29
ATOM     29  C21 <0> d   1       0.002  -0.004   0.002  0.00  0.00     0.317 C 
BRANCH  29  30
ATOM     30  N1  <0> d   1       0.022  -0.501   1.384  0.00  0.00     0.096 N 
ATOM     31  C25 <0> d   1      -0.196  -1.954   1.425  0.00  0.00     0.303 C 
ATOM     32  C24 <0> d   1      -0.248  -2.419   2.882  0.00  0.00     0.302 C 
ATOM     33  N2  <0> d   1       1.009  -2.059   3.553  0.00  0.00     0.087 N 
ATOM     34  C23 <0> d   1       1.227  -0.606   3.513  0.00  0.00     0.302 C 
ATOM     35  C26 <0> d   1       1.029  -2.556   4.935  0.00  0.00     0.310 C 
ATOM     36  C22 <0> d   1       1.279  -0.141   2.055  0.00  0.00     0.303 C 
ENDBRANCH  29  30
ENDBRANCH   8  29
BRANCH   7  37
ATOM     37  O6  <0> d   1       2.352   1.548  -0.012  0.00  0.00    -0.360 OA
ATOM     38  H27 <0> d   1       2.364   0.448  -0.018  0.00  0.00     0.217 HD
ENDBRANCH   7  37
TORSDOF 10
