REMARK  3 active torsions:
REMARK  status: ('A' for Active; 'I' for Inactive)
REMARK    1  A    between atoms: C3_3  and  C17_21 
REMARK    2  A    between atoms: C9_10  and  C11_13 
REMARK    3  A    between atoms: C11_13  and  N1_14 
ROOT
ATOM      1  C1  <0> d   1      -3.374  -2.446  -1.054  0.00  0.00     0.077 C 
ATOM      2  C2  <0> d   1      -3.072  -1.137  -1.736  0.00  0.00     0.065 A 
ATOM      3  C3  <0> d   1      -3.796  -0.790  -2.832  0.00  0.00     0.054 A 
ATOM      4  C4  <0> d   1      -3.501   0.490  -3.499  0.00  0.00     0.198 A 
ATOM      5  O1  <0> d   1      -4.118   0.854  -4.485  0.00  0.00    -0.286 OA
ATOM      6  C5  <0> d   1      -2.424   1.310  -2.915  0.00  0.00     0.050 A 
ATOM      7  C6  <0> d   1      -2.068   2.539  -3.471  0.00  0.00     0.021 A 
ATOM      8  C7  <0> d   1      -1.066   3.274  -2.905  0.00  0.00     0.041 A 
ATOM      9  C8  <0> d   1      -0.399   2.802  -1.776  0.00  0.00     0.118 A 
ATOM     10  C9  <0> d   1      -0.742   1.585  -1.213  0.00  0.00     0.039 A 
ATOM     11  C10 <0> d   1      -1.755   0.823  -1.779  0.00  0.00     0.100 A 
ATOM     12  O2  <0> d   1      -2.104  -0.362  -1.240  0.00  0.00    -0.313 OA
ATOM     13  O3  <0> d   1       0.595   3.543  -1.224  0.00  0.00    -0.191 OA
ENDROOT
BRANCH  10  14
ATOM     14  C11 <0> d   1      -0.013   1.086   0.008  0.00  0.00     0.279 C 
BRANCH  14  15
ATOM     15  N1  <0> d   1      -0.700   1.560   1.217  0.00  0.00    -0.067 N 
ATOM     16  C16 <0> d   1      -0.165   0.905   2.417  0.00  0.00     0.235 C 
ATOM     17  C15 <0> d   1      -0.998   1.311   3.635  0.00  0.00     0.028 C 
ATOM     18  C14 <0> d   1      -0.950   2.833   3.797  0.00  0.00     0.003 C 
ATOM     19  C13 <0> d   1      -1.466   3.491   2.514  0.00  0.00     0.028 C 
ATOM     20  C12 <0> d   1      -0.620   3.022   1.329  0.00  0.00     0.235 C 
ATOM     21  H23 <0> d   1      -1.763   1.288   1.132  0.00  0.00     0.280 HD
ENDBRANCH  14  15
ENDBRANCH  10  14
BRANCH   3  22
ATOM     22  C17 <0> d   1      -4.862  -1.683  -3.348  0.00  0.00    -0.019 A 
ATOM     23  C22 <0> d   1      -4.734  -2.272  -4.604  0.00  0.00     0.012 A 
ATOM     24  C21 <0> d   1      -5.729  -3.102  -5.078  0.00  0.00     0.001 A 
ATOM     25  C20 <0> d   1      -6.853  -3.349  -4.310  0.00  0.00     0.000 A 
ATOM     26  C19 <0> d   1      -6.986  -2.766  -3.063  0.00  0.00     0.001 A 
ATOM     27  C18 <0> d   1      -5.994  -1.940  -2.575  0.00  0.00     0.012 A 
ENDBRANCH   3  22
TORSDOF 3
