REMARK  7 active torsions:
REMARK  status: ('A' for Active; 'I' for Inactive)
REMARK    1  A    between atoms: C2_2  and  N1_3 
REMARK    2  A    between atoms: N1_3  and  C3_4 
REMARK    3  A    between atoms: N1_3  and  C5_6 
REMARK    4  A    between atoms: C5_6  and  C6_7 
REMARK    5  A    between atoms: C7_8  and  O4_30 
REMARK    6  A    between atoms: C13_15  and  C14_16 
REMARK    7  A    between atoms: C19_22  and  O2_25 
ROOT
ATOM      1  C6  <0> d   1       6.767  -5.077  -0.060  0.00  0.00     0.036 A 
ATOM      2  C7  <0> d   1       8.071  -5.548  -0.077  0.00  0.00     0.076 A 
ATOM      3  C8  <0> d   1       9.143  -4.661  -0.124  0.00  0.00     0.038 A 
ATOM      4  C9  <0> d   1       8.920  -3.313  -0.156  0.00  0.00     0.021 A 
ATOM      5  C10 <0> d   1       7.614  -2.825  -0.140  0.00  0.00     0.051 A 
ATOM      6  C11 <0> d   1       6.524  -3.711  -0.092  0.00  0.00     0.101 A 
ATOM      7  O1  <0> d   1       5.380  -2.994  -0.079  0.00  0.00    -0.305 OA
ATOM      8  C12 <0> d   1       5.630  -1.663  -0.126  0.00  0.00     0.128 A 
ATOM      9  C13 <0> d   1       4.690  -0.677  -0.131  0.00  0.00     0.055 C 
ATOM     10  C24 <0> d   1       7.036  -1.470  -0.162  0.00  0.00     0.218 A 
ATOM     11  O3  <0> d   1       7.638  -0.409  -0.204  0.00  0.00    -0.284 OA
ENDROOT
BRANCH   9  12
ATOM     12  C14 <0> d   1       3.270  -1.020  -0.090  0.00  0.00    -0.005 A 
ATOM     13  C17 <0> d   1       2.132  -0.081  -0.089  0.00  0.00     0.005 A 
ATOM     14  C16 <0> d   1       0.975  -0.874  -0.041  0.00  0.00     0.045 A 
ATOM     15  C18 <0> d   1       2.028   1.307  -0.124  0.00  0.00     0.051 A 
ATOM     16  N2  <0> d   1       1.375  -2.197  -0.015  0.00  0.00    -0.360 N 
ATOM     17  C21 <0> d   1      -0.274  -0.262  -0.029  0.00  0.00     0.033 A 
ATOM     18  C15 <0> d   1       2.727  -2.286  -0.043  0.00  0.00     0.103 A 
ATOM     19  C23 <0> d   1       0.463  -3.343   0.037  0.00  0.00     0.156 C 
ATOM     20  C20 <0> d   1      -0.368   1.112  -0.064  0.00  0.00     0.039 A 
ATOM     21  C19 <0> d   1       0.778   1.899  -0.111  0.00  0.00     0.069 A 
BRANCH  21  22
ATOM     22  O2  <0> d   1       0.670   3.254  -0.144  0.00  0.00    -0.356 OA
ATOM     23  C22 <0> d   1      -0.651   3.800  -0.129  0.00  0.00     0.210 C 
ENDBRANCH  21  22
ENDBRANCH   9  12
BRANCH   1  24
ATOM     24  C5  <0> d   1       5.615  -6.048  -0.009  0.00  0.00     0.279 C 
BRANCH  24  25
ATOM     25  N1  <0> d   1       5.095  -6.262  -1.366  0.00  0.00    -0.068 N 
ATOM     26  H26 <0> d   1       5.057  -5.286  -1.872  0.00  0.00     0.280 HD
BRANCH  25  27
ATOM     27  C2  <0> d   1       5.987  -7.136  -2.140  0.00  0.00     0.231 C 
ATOM     28  C1  <0> d   1       6.006  -8.531  -1.511  0.00  0.00     0.034 C 
ENDBRANCH  25  27
BRANCH  25  29
ATOM     29  C3  <0> d   1       3.730  -6.804  -1.327  0.00  0.00     0.231 C 
ATOM     30  C4  <0> d   1       3.087  -6.667  -2.709  0.00  0.00     0.034 C 
ENDBRANCH  25  29
ENDBRANCH  24  25
ENDBRANCH   1  24
BRANCH   2  31
ATOM     31  O4  <0> d   1       8.304  -6.885  -0.046  0.00  0.00    -0.360 OA
ATOM     32  H27 <0> d   1       9.336  -7.264  -0.059  0.00  0.00     0.217 HD
ENDBRANCH   2  31
TORSDOF 7
