REMARK  8 active torsions:
REMARK  status: ('A' for Active; 'I' for Inactive)
REMARK    1  A    between atoms: C5_5  and  C20_25 
REMARK    2  A    between atoms: C10_11  and  C11_12 
REMARK    3  A    between atoms: C13_14  and  O4_22 
REMARK    4  A    between atoms: C14_15  and  O3_20 
REMARK    5  A    between atoms: C15_16  and  O2_18 
REMARK    6  A    between atoms: C20_25  and  N1_26 
REMARK    7  A    between atoms: N2_29  and  C25_32 
REMARK    8  A    between atoms: C28_35  and  O6_38 
ROOT
ATOM      1  C1  <0> d   1       1.286   1.278   0.017  0.00  0.00     0.049 C 
ATOM      2  C2  <0> d   1       0.865  -0.169   0.017  0.00  0.00    -0.042 A 
ATOM      3  C3  <0> d   1       0.759  -0.850  -1.163  0.00  0.00     0.048 A 
ATOM      4  C4  <0> d   1       0.369  -2.187  -1.166  0.00  0.00     0.118 A 
ATOM      5  C5  <0> d   1       0.085  -2.841   0.022  0.00  0.00     0.039 A 
ATOM      6  C6  <0> d   1       0.188  -2.162   1.230  0.00  0.00     0.102 A 
ATOM      7  C7  <0> d   1       0.587  -0.816   1.221  0.00  0.00     0.057 A 
ATOM      8  C8  <0> d   1       0.610  -0.380   2.629  0.00  0.00     0.219 A 
ATOM      9  O1  <0> d   1       0.899   0.722   3.064  0.00  0.00    -0.284 OA
ATOM     10  C9  <0> d   1       0.207  -1.570   3.390  0.00  0.00     0.128 A 
ATOM     11  C10 <0> d   1       0.082  -1.655   4.740  0.00  0.00     0.053 C 
ATOM     12  O5  <0> d   1      -0.029  -2.564   2.501  0.00  0.00    -0.305 OA
ATOM     13  O7  <0> d   1       0.267  -2.855  -2.343  0.00  0.00    -0.191 OA
ENDROOT
BRANCH   5  14
ATOM     14  C20 <0> d   1      -0.336  -4.288   0.004  0.00  0.00     0.279 C 
BRANCH  14  15
ATOM     15  N1  <0> d   1       0.853  -5.145   0.102  0.00  0.00    -0.064 N 
ATOM     16  C24 <0> d   1       0.436  -6.549   0.205  0.00  0.00     0.255 C 
ATOM     17  C23 <0> d   1       1.668  -7.433   0.422  0.00  0.00     0.150 C 
ATOM     18  N2  <0> d   1       2.631  -7.163  -0.656  0.00  0.00    -0.378 N 
ATOM     19  C22 <0> d   1       2.984  -5.763  -0.937  0.00  0.00     0.150 C 
ATOM     20  C21 <0> d   1       1.689  -4.958  -1.091  0.00  0.00     0.255 C 
ATOM     21  H34 <0> d   1       1.382  -4.892   0.923  0.00  0.00     0.280 HD
BRANCH  18  22
ATOM     22  C25 <0> d   1       3.196  -8.209  -1.395  0.00  0.00     0.030 A 
ATOM     23  C30 <0> d   1       2.763  -9.514  -1.195  0.00  0.00     0.032 A 
ATOM     24  C29 <0> d   1       3.317 -10.545  -1.928  0.00  0.00     0.039 A 
ATOM     25  C28 <0> d   1       4.314 -10.279  -2.855  0.00  0.00     0.068 A 
ATOM     26  C27 <0> d   1       4.751  -8.978  -3.051  0.00  0.00     0.039 A 
ATOM     27  C26 <0> d   1       4.194  -7.945  -2.324  0.00  0.00     0.032 A 
BRANCH  25  28
ATOM     28  O6  <0> d   1       4.864 -11.296  -3.572  0.00  0.00    -0.356 OA
ATOM     29  C31 <0> d   1       4.366 -12.611  -3.318  0.00  0.00     0.210 C 
ENDBRANCH  25  28
ENDBRANCH  18  22
ENDBRANCH  14  15
ENDBRANCH   5  14
BRANCH  11  30
ATOM     30  C11 <0> d   1       0.182  -0.444   5.564  0.00  0.00    -0.028 A 
ATOM     31  C16 <0> d   1       0.904  -0.469   6.763  0.00  0.00     0.051 A 
ATOM     32  C15 <0> d   1       1.000   0.674   7.533  0.00  0.00     0.105 A 
ATOM     33  C14 <0> d   1       0.370   1.847   7.123  0.00  0.00     0.135 A 
ATOM     34  C13 <0> d   1      -0.354   1.874   5.933  0.00  0.00     0.105 A 
ATOM     35  C12 <0> d   1      -0.450   0.737   5.155  0.00  0.00     0.051 A 
BRANCH  32  36
ATOM     36  O2  <0> d   1       1.706   0.653   8.695  0.00  0.00    -0.353 OA
ATOM     37  C17 <0> d   1       2.326  -0.583   9.055  0.00  0.00     0.210 C 
ENDBRANCH  32  36
BRANCH  33  38
ATOM     38  O3  <0> d   1       0.463   2.968   7.886  0.00  0.00    -0.351 OA
ATOM     39  C18 <0> d   1      -0.544   3.160   8.882  0.00  0.00     0.210 C 
ENDBRANCH  33  38
BRANCH  34  40
ATOM     40  O4  <0> d   1      -0.967   3.022   5.537  0.00  0.00    -0.353 OA
ATOM     41  C19 <0> d   1      -1.692   2.979   4.307  0.00  0.00     0.210 C 
ENDBRANCH  34  40
ENDBRANCH  11  30
TORSDOF 8
