REMARK  4 active torsions:
REMARK  status: ('A' for Active; 'I' for Inactive)
REMARK    1  A    between atoms: C2_2  and  N1_3 
REMARK    2  A    between atoms: N2_6  and  C7_9 
REMARK    3  A    between atoms: C7_9  and  C8_10 
REMARK    4  A    between atoms: C15_18  and  C16_19 
ROOT
ATOM      1  C8  <0> d   1       2.314  10.228   0.034  0.00  0.00     0.041 A 
ATOM      2  C9  <0> d   1       2.148  11.604   0.042  0.00  0.00     0.118 A 
ATOM      3  C10 <0> d   1       0.874  12.163   0.056  0.00  0.00     0.041 A 
ATOM      4  C11 <0> d   1      -0.231  11.359   0.062  0.00  0.00     0.021 A 
ATOM      5  C12 <0> d   1      -0.080   9.972   0.054  0.00  0.00     0.051 A 
ATOM      6  C13 <0> d   1       1.202   9.397   0.040  0.00  0.00     0.101 A 
ATOM      7  O1  <0> d   1       1.075   8.053   0.035  0.00  0.00    -0.305 OA
ATOM      8  C14 <0> d   1      -0.226   7.678   0.045  0.00  0.00     0.128 A 
ATOM      9  C15 <0> d   1      -0.685   6.396   0.042  0.00  0.00     0.055 C 
ATOM     10  C25 <0> d   1      -1.032   8.848   0.052  0.00  0.00     0.218 A 
ATOM     11  O2  <0> d   1      -2.250   8.908   0.058  0.00  0.00    -0.284 OA
ATOM     12  O3  <0> d   1       3.238  12.413   0.036  0.00  0.00    -0.191 OA
ENDROOT
BRANCH   9  13
ATOM     13  C16 <0> d   1       0.260   5.281   0.028  0.00  0.00    -0.005 A 
ATOM     14  C19 <0> d   1      -0.067   3.842   0.023  0.00  0.00     0.002 A 
ATOM     15  C18 <0> d   1       1.163   3.166   0.008  0.00  0.00     0.045 A 
ATOM     16  C20 <0> d   1      -1.260   3.124   0.031  0.00  0.00     0.014 A 
ATOM     17  N3  <0> d   1       2.164   4.115   0.004  0.00  0.00    -0.360 N 
ATOM     18  C23 <0> d   1       1.175   1.774   0.000  0.00  0.00     0.030 A 
ATOM     19  C17 <0> d   1       1.636   5.364   0.015  0.00  0.00     0.103 A 
ATOM     20  C24 <0> d   1       3.598   3.816  -0.012  0.00  0.00     0.156 C 
ATOM     21  C22 <0> d   1      -0.013   1.076   0.008  0.00  0.00     0.002 A 
ATOM     22  C21 <0> d   1      -1.227   1.746   0.017  0.00  0.00     0.001 A 
ENDBRANCH   9  13
BRANCH   1  23
ATOM     23  C7  <0> d   1       3.699   9.635   0.018  0.00  0.00     0.317 C 
BRANCH  23  24
ATOM     24  N2  <0> d   1       4.136   9.449  -1.372  0.00  0.00     0.096 N 
ATOM     25  C4  <0> d   1       5.561   9.098  -1.434  0.00  0.00     0.300 C 
ATOM     26  C3  <0> d   1       5.995   8.991  -2.898  0.00  0.00     0.265 C 
ATOM     27  N1  <0> d   1       5.176   7.977  -3.576  0.00  0.00    -0.068 N 
ATOM     28  C6  <0> d   1       3.751   8.329  -3.515  0.00  0.00     0.265 C 
ATOM     29  H27 <0> d   1       5.314   7.022  -3.049  0.00  0.00     0.280 HD
ATOM     30  C5  <0> d   1       3.317   8.435  -2.051  0.00  0.00     0.300 C 
BRANCH  27  31
ATOM     31  C2  <0> d   1       5.613   7.792  -4.966  0.00  0.00     0.230 C 
ATOM     32  C1  <0> d   1       4.595   6.924  -5.710  0.00  0.00     0.034 C 
ENDBRANCH  27  31
ENDBRANCH  23  24
ENDBRANCH   1  23
TORSDOF 4
