REMARK  8 active torsions:
REMARK  status: ('A' for Active; 'I' for Inactive)
REMARK    1  A    between atoms: O1_2  and  C2_3 
REMARK    2  A    between atoms: C7_8  and  C8_9 
REMARK    3  A    between atoms: C9_10  and  C10_11 
REMARK    4  A    between atoms: C17_19  and  C19_22 
REMARK    5  A    between atoms: C19_22  and  N1_23 
REMARK    6  A    between atoms: N2_26  and  C24_29 
REMARK    7  A    between atoms: C24_29  and  C25_30 
REMARK    8  A    between atoms: C25_30  and  O4_31 
ROOT
ATOM      1  C10 <0> d   1      -0.300  -5.375   0.992  0.00  0.00     0.041 C 
ATOM      2  C11 <0> d   1      -0.057  -6.705   0.793  0.00  0.00     0.127 A 
ATOM      3  C12 <0> d   1      -0.386  -7.753   1.696  0.00  0.00     0.218 A 
ATOM      4  O2  <0> d   1      -0.931  -7.652   2.782  0.00  0.00    -0.284 OA
ATOM      5  C13 <0> d   1       0.072  -8.988   1.035  0.00  0.00     0.051 A 
ATOM      6  C14 <0> d   1       0.044 -10.336   1.393  0.00  0.00     0.021 A 
ATOM      7  C15 <0> d   1       0.562 -11.275   0.546  0.00  0.00     0.041 A 
ATOM      8  C16 <0> d   1       1.118 -10.891  -0.671  0.00  0.00     0.118 A 
ATOM      9  C17 <0> d   1       1.153  -9.555  -1.039  0.00  0.00     0.039 A 
ATOM     10  C18 <0> d   1       0.631  -8.589  -0.190  0.00  0.00     0.101 A 
ATOM     11  O3  <0> d   1       0.531  -7.247  -0.298  0.00  0.00    -0.305 OA
ATOM     12  O5  <0> d   1       1.629 -11.832  -1.505  0.00  0.00    -0.191 OA
ENDROOT
BRANCH   9  13
ATOM     13  C19 <0> d   1       1.759  -9.152  -2.359  0.00  0.00     0.279 C 
BRANCH  13  14
ATOM     14  N1  <0> d   1       0.718  -9.156  -3.396  0.00  0.00    -0.064 N 
ATOM     15  C23 <0> d   1       1.329  -8.880  -4.703  0.00  0.00     0.265 C 
ATOM     16  C22 <0> d   1       0.249  -8.902  -5.787  0.00  0.00     0.300 C 
ATOM     17  N2  <0> d   1      -0.770  -7.888  -5.479  0.00  0.00     0.093 N 
ATOM     18  C21 <0> d   1      -1.373  -8.137  -4.162  0.00  0.00     0.300 C 
ATOM     19  C20 <0> d   1      -0.279  -8.121  -3.092  0.00  0.00     0.265 C 
ATOM     20  H28 <0> d   1       0.269 -10.059  -3.419  0.00  0.00     0.280 HD
BRANCH  17  21
ATOM     21  C24 <0> d   1      -1.797  -7.839  -6.528  0.00  0.00     0.298 C 
BRANCH  21  22
ATOM     22  C25 <0> d   1      -2.541  -6.505  -6.452  0.00  0.00     0.194 C 
BRANCH  22  23
ATOM     23  O4  <0> d   1      -1.638  -5.438  -6.750  0.00  0.00    -0.399 OA
ATOM     24  H27 <0> d   1      -2.042  -4.560  -6.720  0.00  0.00     0.209 HD
ENDBRANCH  22  23
ENDBRANCH  21  22
ENDBRANCH  17  21
ENDBRANCH  13  14
ENDBRANCH   9  13
BRANCH   1  25
ATOM     25  C9  <0> d   1       0.073  -4.438   0.011  0.00  0.00     0.004 C 
ATOM     26  C8  <0> d   1      -0.168  -3.118   0.208  0.00  0.00     0.014 C 
BRANCH  26  27
ATOM     27  C7  <0> d   1       0.221  -2.140  -0.815  0.00  0.00    -0.003 A 
ATOM     28  C2  <0> d   1      -0.027  -0.772  -0.615  0.00  0.00     0.078 A 
ATOM     29  C3  <0> d   1       0.350   0.142  -1.586  0.00  0.00     0.037 A 
ATOM     30  C4  <0> d   1       0.961  -0.292  -2.747  0.00  0.00     0.003 A 
ATOM     31  C5  <0> d   1       1.203  -1.641  -2.951  0.00  0.00     0.001 A 
ATOM     32  C6  <0> d   1       0.836  -2.566  -1.998  0.00  0.00     0.014 A 
BRANCH  28  33
ATOM     33  O1  <0> d   1      -0.627  -0.346   0.526  0.00  0.00    -0.355 OA
ATOM     34  C1  <0> d   1      -0.846   1.060   0.658  0.00  0.00     0.210 C 
ENDBRANCH  28  33
ENDBRANCH  26  27
ENDBRANCH   1  25
TORSDOF 8
