REMARK  6 active torsions:
REMARK  status: ('A' for Active; 'I' for Inactive)
REMARK    1  A    between atoms: C5_5  and  C7_7 
REMARK    2  A    between atoms: C7_7  and  C8_8 
REMARK    3  A    between atoms: C8_8  and  C9_10 
REMARK    4  A    between atoms: C10_11  and  O4_18 
REMARK    5  A    between atoms: C12_13  and  O3_17 
REMARK    6  A    between atoms: C14_15  and  O2_16 
ROOT
ATOM      1  C9  <0> d   1      -1.236   3.156   0.029  0.00  0.00     0.076 A 
ATOM      2  C10 <0> d   1      -1.220   1.748   0.017  0.00  0.00     0.085 A 
ATOM      3  C11 <0> d   1      -0.013   1.076   0.008  0.00  0.00     0.074 A 
ATOM      4  C12 <0> d   1       1.182   1.785   0.000  0.00  0.00     0.071 A 
ATOM      5  C13 <0> d   1       1.177   3.174   0.008  0.00  0.00     0.074 A 
ATOM      6  C14 <0> d   1      -0.020   3.865   0.022  0.00  0.00     0.085 A 
ENDROOT
BRANCH   1   7
ATOM      7  C8  <0> d   1      -2.507   3.876   0.044  0.00  0.00     0.169 C 
ATOM      8  O1  <0> d   1      -2.517   5.090   0.050  0.00  0.00    -0.292 OA
BRANCH   7   9
ATOM      9  C7  <0> d   1      -3.807   3.112   0.052  0.00  0.00     0.124 C 
BRANCH   9  10
ATOM     10  C5  <0> d   1      -4.960   4.083   0.067  0.00  0.00    -0.029 A 
ATOM     11  C4  <0> d   1      -5.432   4.614  -1.120  0.00  0.00     0.040 A 
ATOM     12  C3  <0> d   1      -6.491   5.504  -1.106  0.00  0.00     0.024 A 
ATOM     13 Cl1  <0> d   1      -4.697   4.162  -2.627  0.00  0.00    -0.084 Cl
ATOM     14  C2  <0> d   1      -7.076   5.862   0.094  0.00  0.00     0.002 A 
ATOM     15  C1  <0> d   1      -6.604   5.331   1.279  0.00  0.00     0.001 A 
ATOM     16  C6  <0> d   1      -5.549   4.438   1.265  0.00  0.00     0.009 A 
ENDBRANCH   9  10
ENDBRANCH   7   9
ENDBRANCH   1   7
BRANCH   6  17
ATOM     17  O2  <0> d   1      -0.023   5.221   0.029  0.00  0.00    -0.360 OA
ATOM     18  H11 <0> d   1       0.928   5.773   0.024  0.00  0.00     0.217 HD
ENDBRANCH   6  17
BRANCH   2  19
ATOM     19  O4  <0> d   1      -2.385   1.054   0.019  0.00  0.00    -0.360 OA
ATOM     20  H10 <0> d   1      -2.370  -0.046   0.010  0.00  0.00     0.217 HD
ENDBRANCH   2  19
BRANCH   4  21
ATOM     21  O3  <0> d   1       2.363   1.116  -0.014  0.00  0.00    -0.361 OA
ATOM     22  H9  <0> d   1       3.311   1.673  -0.020  0.00  0.00     0.217 HD
ENDBRANCH   4  21
TORSDOF 6
