REMARK  5 active torsions:
REMARK  status: ('A' for Active; 'I' for Inactive)
REMARK    1  A    between atoms: C5_5  and  C17_20 
REMARK    2  A    between atoms: C10_11  and  C11_12 
REMARK    3  A    between atoms: C17_20  and  N1_21 
REMARK    4  A    between atoms: N2_24  and  C22_27 
REMARK    5  A    between atoms: C22_27  and  C23_28 
ROOT
ATOM      1  C1  <0> d   1      -0.086   1.509   0.016  0.00  0.00     0.049 C 
ATOM      2  C2  <0> d   1      -0.072   0.002   0.006  0.00  0.00    -0.042 A 
ATOM      3  C3  <0> d   1      -0.092  -0.674  -1.181  0.00  0.00     0.048 A 
ATOM      4  C4  <0> d   1      -0.080  -2.066  -1.193  0.00  0.00     0.118 A 
ATOM      5  C5  <0> d   1      -0.047  -2.781  -0.007  0.00  0.00     0.039 A 
ATOM      6  C6  <0> d   1      -0.026  -2.109   1.209  0.00  0.00     0.102 A 
ATOM      7  C7  <0> d   1      -0.034  -0.705   1.208  0.00  0.00     0.057 A 
ATOM      8  C8  <0> d   1      -0.000  -0.288   2.622  0.00  0.00     0.219 A 
ATOM      9  O1  <0> d   1       0.000   0.847   3.065  0.00  0.00    -0.284 OA
ATOM     10  C9  <0> d   1       0.031  -1.550   3.377  0.00  0.00     0.128 A 
ATOM     11  C10 <0> d   1       0.068  -1.675   4.728  0.00  0.00     0.053 C 
ATOM     12  O2  <0> d   1       0.006  -2.564   2.480  0.00  0.00    -0.305 OA
ATOM     13  O5  <0> d   1      -0.100  -2.729  -2.378  0.00  0.00    -0.191 OA
ENDROOT
BRANCH   5  14
ATOM     14  C17 <0> d   1      -0.035  -4.288  -0.035  0.00  0.00     0.279 C 
BRANCH  14  15
ATOM     15  N1  <0> d   1       1.354  -4.765  -0.075  0.00  0.00    -0.064 N 
ATOM     16  C21 <0> d   1       1.365  -6.227  -0.223  0.00  0.00     0.265 C 
ATOM     17  C20 <0> d   1       2.811  -6.723  -0.283  0.00  0.00     0.300 C 
ATOM     18  N2  <0> d   1       3.512  -6.332   0.948  0.00  0.00     0.095 N 
ATOM     19  C19 <0> d   1       3.488  -4.873   1.123  0.00  0.00     0.300 C 
ATOM     20  C18 <0> d   1       2.036  -4.393   1.172  0.00  0.00     0.265 C 
ATOM     21  H27 <0> d   1       1.832  -4.345  -0.858  0.00  0.00     0.280 HD
BRANCH  18  22
ATOM     22  C22 <0> d   1       4.890  -6.840   0.953  0.00  0.00     0.311 C 
BRANCH  22  23
ATOM     23  C23 <0> d   1       4.871  -8.346   1.020  0.00  0.00    -0.027 A 
ATOM     24  C28 <0> d   1       4.847  -9.087  -0.146  0.00  0.00     0.048 A 
ATOM     25  C27 <0> d   1       4.834 -10.472  -0.088  0.00  0.00     0.105 A 
ATOM     26  C26 <0> d   1       4.834 -11.113   1.149  0.00  0.00     0.105 A 
ATOM     27  O3  <0> d   1       4.814 -11.419  -1.070  0.00  0.00    -0.323 OA
ATOM     28  C25 <0> d   1       4.853 -10.363   2.313  0.00  0.00     0.040 A 
ATOM     29  O4  <0> d   1       4.815 -12.461   0.941  0.00  0.00    -0.323 OA
ATOM     30  C24 <0> d   1       4.871  -8.982   2.247  0.00  0.00     0.012 A 
ATOM     31  C29 <0> d   1       5.215 -12.645  -0.430  0.00  0.00     0.352 C 
ENDBRANCH  22  23
ENDBRANCH  18  22
ENDBRANCH  14  15
ENDBRANCH   5  14
BRANCH  11  32
ATOM     32  C11 <0> d   1      -0.019  -3.005   5.345  0.00  0.00    -0.033 A 
ATOM     33  C16 <0> d   1      -0.010  -4.154   4.544  0.00  0.00     0.014 A 
ATOM     34  C15 <0> d   1      -0.086  -5.398   5.130  0.00  0.00     0.043 A 
ATOM     35  C14 <0> d   1      -0.182  -5.515   6.509  0.00  0.00     0.116 A 
ATOM     36  C13 <0> d   1      -0.197  -4.381   7.308  0.00  0.00     0.043 A 
ATOM     37  F1  <0> d   1      -0.262  -6.738   7.076  0.00  0.00    -0.206 F 
ATOM     38  C12 <0> d   1      -0.116  -3.130   6.736  0.00  0.00     0.014 A 
ENDBRANCH  11  32
TORSDOF 5
