REMARK  4 active torsions:
REMARK  status: ('A' for Active; 'I' for Inactive)
REMARK    1  A    between atoms: C5_6  and  C6_7 
REMARK    2  A    between atoms: C12_14  and  O3_26 
REMARK    3  A    between atoms: C13_15  and  C15_18 
REMARK    4  A    between atoms: C15_18  and  N1_19 
ROOT
ATOM      1  C6  <0> d   1      -0.013   1.076   0.008  0.00  0.00     0.060 C 
ATOM      2  C7  <0> d   1      -1.203   1.742   0.017  0.00  0.00     0.128 A 
ATOM      3  C8  <0> d   1      -2.490   1.141   0.020  0.00  0.00     0.218 A 
ATOM      4  O1  <0> d   1      -2.752  -0.051   0.015  0.00  0.00    -0.284 OA
ATOM      5  C9  <0> d   1      -3.442   2.266   0.031  0.00  0.00     0.051 A 
ATOM      6  C10 <0> d   1      -4.834   2.347   0.038  0.00  0.00     0.021 A 
ATOM      7  C11 <0> d   1      -5.444   3.569   0.050  0.00  0.00     0.038 A 
ATOM      8  C12 <0> d   1      -4.681   4.734   0.052  0.00  0.00     0.076 A 
ATOM      9  C13 <0> d   1      -3.297   4.669   0.045  0.00  0.00     0.038 A 
ATOM     10  C14 <0> d   1      -2.662   3.434   0.034  0.00  0.00     0.101 A 
ATOM     11  O2  <0> d   1      -1.357   3.087   0.031  0.00  0.00    -0.305 OA
ENDROOT
BRANCH   9  12
ATOM     12  C15 <0> d   1      -2.482   5.937   0.048  0.00  0.00     0.317 C 
BRANCH  12  13
ATOM     13  N1  <0> d   1      -2.225   6.357  -1.336  0.00  0.00     0.096 N 
ATOM     14  C19 <0> d   1      -1.642   7.705  -1.378  0.00  0.00     0.303 C 
ATOM     15  C18 <0> d   1      -1.464   8.136  -2.836  0.00  0.00     0.302 C 
ATOM     16  N2  <0> d   1      -0.599   7.170  -3.527  0.00  0.00     0.087 N 
ATOM     17  C17 <0> d   1      -1.182   5.822  -3.486  0.00  0.00     0.302 C 
ATOM     18  C20 <0> d   1      -0.342   7.590  -4.911  0.00  0.00     0.310 C 
ATOM     19  C16 <0> d   1      -1.360   5.390  -2.028  0.00  0.00     0.303 C 
ENDBRANCH  12  13
ENDBRANCH   9  12
BRANCH   8  20
ATOM     20  O3  <0> d   1      -5.298   5.943   0.063  0.00  0.00    -0.360 OA
ATOM     21  H22 <0> d   1      -4.700   6.866   0.065  0.00  0.00     0.217 HD
ENDBRANCH   8  20
BRANCH   1  22
ATOM     22  C5  <0> d   1       1.201   1.799   0.000  0.00  0.00     0.013 A 
ATOM     23  C2  <0> d   1       2.508   1.319  -0.009  0.00  0.00    -0.044 A 
ATOM     24  C1  <0> d   1       2.805  -0.158  -0.012  0.00  0.00     0.049 C 
ATOM     25  C3  <0> d   1       3.513   2.253  -0.020  0.00  0.00     0.015 A 
ATOM     26  C4  <0> d   1       3.192   3.575  -0.009  0.00  0.00     0.051 A 
ATOM     27  S1  <0> d   1       1.459   3.564   0.008  0.00  0.00    -0.102 SA
ENDBRANCH   1  22
TORSDOF 4
