REMARK  5 active torsions:
REMARK  status: ('A' for Active; 'I' for Inactive)
REMARK    1  A    between atoms: C8_8  and  C11_13 
REMARK    2  A    between atoms: C11_13  and  N1_14 
REMARK    3  A    between atoms: N2_17  and  C16_20 
REMARK    4  A    between atoms: C16_20  and  C17_21 
REMARK    5  A    between atoms: C17_21  and  O3_22 
ROOT
ATOM      1  C1  <0> d   1      -0.479  -6.644   2.808  0.00  0.00     0.048 C 
ATOM      2  C2  <0> d   1      -0.764  -5.326   2.137  0.00  0.00    -0.061 A 
ATOM      3  C3  <0> d   1      -2.046  -4.795   2.177  0.00  0.00     0.009 A 
ATOM      4  C4  <0> d   1      -2.328  -3.590   1.569  0.00  0.00     0.039 A 
ATOM      5  C5  <0> d   1      -1.321  -2.897   0.909  0.00  0.00     0.090 A 
ATOM      6  C6  <0> d   1      -0.024  -3.437   0.872  0.00  0.00     0.007 A 
ATOM      7  C7  <0> d   1       0.241  -4.660   1.494  0.00  0.00     0.021 A 
ATOM      8  C8  <0> d   1       1.034  -2.699   0.174  0.00  0.00    -0.011 A 
ATOM      9  C9  <0> d   1       0.711  -1.517  -0.410  0.00  0.00     0.092 A 
ATOM     10  C10 <0> d   1      -0.613  -1.034  -0.333  0.00  0.00     0.288 A 
ATOM     11  O1  <0> d   1      -0.889   0.028  -0.861  0.00  0.00    -0.260 OA
ATOM     12  O2  <0> d   1      -1.575  -1.716   0.307  0.00  0.00    -0.275 OA
ENDROOT
BRANCH   8  13
ATOM     13  C11 <0> d   1       2.439  -3.238   0.106  0.00  0.00     0.312 C 
BRANCH  13  14
ATOM     14  N1  <0> d   1       3.086  -3.084   1.416  0.00  0.00     0.096 N 
ATOM     15  C15 <0> d   1       4.292  -3.919   1.510  0.00  0.00     0.303 C 
ATOM     16  C14 <0> d   1       4.890  -3.792   2.913  0.00  0.00     0.302 C 
ATOM     17  N2  <0> d   1       5.207  -2.382   3.181  0.00  0.00     0.093 N 
ATOM     18  C13 <0> d   1       4.002  -1.547   3.087  0.00  0.00     0.302 C 
ATOM     19  C12 <0> d   1       3.404  -1.674   1.684  0.00  0.00     0.303 C 
BRANCH  17  20
ATOM     20  C16 <0> d   1       5.854  -2.228   4.491  0.00  0.00     0.298 C 
BRANCH  20  21
ATOM     21  C17 <0> d   1       7.308  -2.695   4.399  0.00  0.00     0.194 C 
BRANCH  21  22
ATOM     22  O3  <0> d   1       8.027  -1.840   3.507  0.00  0.00    -0.399 OA
ATOM     23  H22 <0> d   1       9.095  -2.021   3.314  0.00  0.00     0.209 HD
ENDBRANCH  21  22
ENDBRANCH  20  21
ENDBRANCH  17  20
ENDBRANCH  13  14
ENDBRANCH   8  13
TORSDOF 5
