REMARK  8 active torsions:
REMARK  status: ('A' for Active; 'I' for Inactive)
REMARK    1  A    between atoms: O1_2  and  C2_3 
REMARK    2  A    between atoms: C5_6  and  C8_9 
REMARK    3  A    between atoms: C14_16  and  O4_20 
REMARK    4  A    between atoms: O4_20  and  C17_21 
REMARK    5  A    between atoms: C17_21  and  C18_22 
REMARK    6  A    between atoms: C18_22  and  N1_23 
REMARK    7  A    between atoms: N2_26  and  C23_29 
REMARK    8  A    between atoms: C23_29  and  C24_30 
ROOT
ATOM      1  C8  <0> d   1      -3.883  -1.344   0.292  0.00  0.00     0.053 C 
ATOM      2  C9  <0> d   1      -5.136  -0.831   0.391  0.00  0.00     0.127 A 
ATOM      3  C10 <0> d   1      -6.377  -1.597   0.576  0.00  0.00     0.218 A 
ATOM      4  O2  <0> d   1      -6.499  -2.806   0.672  0.00  0.00    -0.284 OA
ATOM      5  C11 <0> d   1      -7.439  -0.576   0.624  0.00  0.00     0.051 A 
ATOM      6  C12 <0> d   1      -8.824  -0.646   0.780  0.00  0.00     0.021 A 
ATOM      7  C13 <0> d   1      -9.568   0.500   0.778  0.00  0.00     0.038 A 
ATOM      8  C14 <0> d   1      -8.947   1.736   0.619  0.00  0.00     0.071 A 
ATOM      9  C15 <0> d   1      -7.574   1.821   0.463  0.00  0.00     0.075 A 
ATOM     10  C16 <0> d   1      -6.802   0.665   0.463  0.00  0.00     0.093 A 
ATOM     11  O3  <0> d   1      -5.471   0.480   0.331  0.00  0.00    -0.306 OA
ENDROOT
BRANCH   8  12
ATOM     12  O4  <0> d   1      -9.696   2.869   0.618  0.00  0.00    -0.349 OA
BRANCH  12  13
ATOM     13  C17 <0> d   1     -11.107   2.715   0.784  0.00  0.00     0.206 C 
BRANCH  13  14
ATOM     14  C18 <0> d   1     -11.777   4.090   0.755  0.00  0.00     0.299 C 
BRANCH  14  15
ATOM     15  N1  <0> d   1     -11.583   4.702  -0.566  0.00  0.00     0.093 N 
ATOM     16  C22 <0> d   1     -12.478   4.098  -1.562  0.00  0.00     0.302 C 
ATOM     17  C21 <0> d   1     -12.190   4.706  -2.937  0.00  0.00     0.303 C 
ATOM     18  N2  <0> d   1     -12.381   6.162  -2.876  0.00  0.00     0.096 N 
ATOM     19  C20 <0> d   1     -11.486   6.766  -1.879  0.00  0.00     0.303 C 
ATOM     20  C19 <0> d   1     -11.774   6.158  -0.504  0.00  0.00     0.302 C 
BRANCH  18  21
ATOM     21  C23 <0> d   1     -12.187   6.774  -4.197  0.00  0.00     0.311 C 
BRANCH  21  22
ATOM     22  C24 <0> d   1     -12.146   8.274  -4.055  0.00  0.00    -0.030 A 
ATOM     23  C29 <0> d   1     -10.940   8.915  -3.837  0.00  0.00     0.009 A 
ATOM     24  C28 <0> d   1     -10.903  10.290  -3.706  0.00  0.00     0.001 A 
ATOM     25  C27 <0> d   1     -12.070  11.025  -3.793  0.00  0.00     0.000 A 
ATOM     26  C26 <0> d   1     -13.276  10.384  -4.011  0.00  0.00     0.001 A 
ATOM     27  C25 <0> d   1     -13.313   9.009  -4.147  0.00  0.00     0.009 A 
ENDBRANCH  21  22
ENDBRANCH  18  21
ENDBRANCH  14  15
ENDBRANCH  13  14
ENDBRANCH  12  13
ENDBRANCH   8  12
BRANCH   1  28
ATOM     28  C5  <0> d   1      -2.725  -0.445   0.220  0.00  0.00    -0.033 A 
ATOM     29  C4  <0> d   1      -1.426  -0.969   0.235  0.00  0.00     0.014 A 
ATOM     30  C3  <0> d   1      -0.344  -0.121   0.163  0.00  0.00     0.037 A 
ATOM     31  C2  <0> d   1      -0.538   1.254   0.085  0.00  0.00     0.068 A 
ATOM     32  C7  <0> d   1      -1.826   1.779   0.068  0.00  0.00     0.037 A 
ATOM     33  C6  <0> d   1      -2.915   0.941   0.135  0.00  0.00     0.014 A 
BRANCH  31  34
ATOM     34  O1  <0> d   1       0.532   2.085   0.019  0.00  0.00    -0.356 OA
ATOM     35  C1  <0> d   1       1.826   1.480   0.040  0.00  0.00     0.210 C 
ENDBRANCH  31  34
ENDBRANCH   1  28
TORSDOF 8
