REMARK  9 active torsions:
REMARK  status: ('A' for Active; 'I' for Inactive)
REMARK    1  A    between atoms: C6_6  and  O6_33 
REMARK    2  A    between atoms: C7_7  and  C19_23 
REMARK    3  A    between atoms: C10_12  and  C11_13 
REMARK    4  A    between atoms: C13_15  and  O4_21 
REMARK    5  A    between atoms: C16_18  and  O3_19 
REMARK    6  A    between atoms: C19_23  and  N1_24 
REMARK    7  A    between atoms: N2_27  and  C24_30 
REMARK    8  A    between atoms: C24_30  and  C25_31 
REMARK    9  A    between atoms: C25_31  and  O5_32 
ROOT
ATOM      1  C1  <0> d   1       1.224   1.336   1.062  0.00  0.00     0.050 C 
ATOM      2  C2  <0> d   1       0.298   1.799   2.157  0.00  0.00    -0.032 A 
ATOM      3  C3  <0> d   1      -1.097   1.911   1.923  0.00  0.00     0.006 A 
ATOM      4  C4  <0> d   1      -1.630   1.580   0.668  0.00  0.00     0.017 A 
ATOM      5  C5  <0> d   1      -2.972   1.684   0.449  0.00  0.00     0.038 A 
ATOM      6  C6  <0> d   1      -3.821   2.113   1.468  0.00  0.00     0.076 A 
ATOM      7  C7  <0> d   1      -3.314   2.439   2.714  0.00  0.00     0.038 A 
ATOM      8  C8  <0> d   1      -1.951   2.339   2.955  0.00  0.00     0.101 A 
ATOM      9  O1  <0> d   1      -1.456   2.657   4.171  0.00  0.00    -0.273 OA
ATOM     10  C9  <0> d   1      -0.141   2.570   4.433  0.00  0.00     0.300 A 
ATOM     11  O2  <0> d   1       0.278   2.863   5.538  0.00  0.00    -0.259 OA
ATOM     12  C10 <0> d   1       0.789   2.124   3.393  0.00  0.00     0.059 A 
ENDROOT
BRANCH   7  13
ATOM     13  C19 <0> d   1      -4.242   2.902   3.808  0.00  0.00     0.317 C 
BRANCH  13  14
ATOM     14  N1  <0> d   1      -4.374   4.364   3.751  0.00  0.00     0.096 N 
ATOM     15  C23 <0> d   1      -5.446   4.831   4.642  0.00  0.00     0.303 C 
ATOM     16  C22 <0> d   1      -5.605   6.346   4.494  0.00  0.00     0.302 C 
ATOM     17  N2  <0> d   1      -4.331   7.003   4.818  0.00  0.00     0.093 N 
ATOM     18  C21 <0> d   1      -3.259   6.536   3.928  0.00  0.00     0.302 C 
ATOM     19  C20 <0> d   1      -3.100   5.021   4.075  0.00  0.00     0.303 C 
BRANCH  17  20
ATOM     20  C24 <0> d   1      -4.463   8.465   4.762  0.00  0.00     0.298 C 
BRANCH  20  21
ATOM     21  C25 <0> d   1      -5.207   8.958   6.004  0.00  0.00     0.194 C 
BRANCH  21  22
ATOM     22  O5  <0> d   1      -4.423   8.688   7.168  0.00  0.00    -0.399 OA
ATOM     23  H29 <0> d   1      -4.797   8.973   8.162  0.00  0.00     0.209 HD
ENDBRANCH  21  22
ENDBRANCH  20  21
ENDBRANCH  17  20
ENDBRANCH  13  14
ENDBRANCH   7  13
BRANCH   6  24
ATOM     24  O6  <0> d   1      -5.155   2.211   1.236  0.00  0.00    -0.360 OA
ATOM     25  H30 <0> d   1      -5.829   2.549   2.037  0.00  0.00     0.217 HD
ENDBRANCH   6  24
BRANCH  12  26
ATOM     26  C11 <0> d   1       2.240   2.026   3.674  0.00  0.00     0.017 A 
ATOM     27  C16 <0> d   1       2.781   0.834   4.167  0.00  0.00     0.079 A 
ATOM     28  C15 <0> d   1       4.138   0.748   4.428  0.00  0.00     0.040 A 
ATOM     29  C14 <0> d   1       4.958   1.837   4.203  0.00  0.00     0.039 A 
ATOM     30  C13 <0> d   1       4.427   3.023   3.713  0.00  0.00     0.069 A 
ATOM     31  C12 <0> d   1       3.073   3.119   3.443  0.00  0.00     0.052 A 
BRANCH  27  32
ATOM     32  O3  <0> d   1       1.975  -0.239   4.389  0.00  0.00    -0.355 OA
ATOM     33  C17 <0> d   1       2.596  -1.423   4.893  0.00  0.00     0.210 C 
ENDBRANCH  27  32
BRANCH  30  34
ATOM     34  O4  <0> d   1       5.240   4.091   3.493  0.00  0.00    -0.356 OA
ATOM     35  C18 <0> d   1       6.628   3.921   3.788  0.00  0.00     0.210 C 
ENDBRANCH  30  34
ENDBRANCH  12  26
TORSDOF 9
