REMARK  3 active torsions:
REMARK  status: ('A' for Active; 'I' for Inactive)
REMARK    1  A    between atoms: C6_6  and  C12_14 
REMARK    2  A    between atoms: C12_14  and  N1_15 
REMARK    3  A    between atoms: N2_18  and  C17_21 
ROOT
ATOM      1  C12 <0> d   1       0.122  -5.346  -1.434  0.00  0.00     0.274 C 
ENDROOT
BRANCH   1   2
ATOM      2  C6  <0> d   1       0.290  -4.463  -0.225  0.00  0.00    -0.014 A 
ATOM      3  C5  <0> d   1       0.490  -3.018  -0.369  0.00  0.00     0.007 A 
ATOM      4  C4  <0> d   1       0.530  -2.418  -1.632  0.00  0.00     0.015 A 
ATOM      5  C9  <0> d   1       0.642  -2.232   0.786  0.00  0.00     0.096 A 
ATOM      6  C3  <0> d   1       0.717  -1.068  -1.735  0.00  0.00     0.008 A 
ATOM      7  C2  <0> d   1       0.868  -0.289  -0.596  0.00  0.00    -0.053 A 
ATOM      8  C1  <0> d   1       1.074   1.197  -0.732  0.00  0.00     0.049 C 
ATOM      9  C10 <0> d   1       0.837  -0.863   0.658  0.00  0.00    -0.021 A 
ATOM     10  C11 <0> d   1       1.008  -0.005   1.885  0.00  0.00     0.052 C 
ATOM     11  O2  <0> d   1       0.604  -2.813   2.004  0.00  0.00    -0.274 OA
ATOM     12  C8  <0> d   1       0.422  -4.135   2.145  0.00  0.00     0.288 A 
ATOM     13  C7  <0> d   1       0.262  -4.984   1.028  0.00  0.00     0.092 A 
ATOM     14  O1  <0> d   1       0.394  -4.615   3.264  0.00  0.00    -0.260 OA
ENDBRANCH   1   2
BRANCH   1  15
ATOM     15  N1  <0> d   1      -1.287  -5.344  -1.850  0.00  0.00    -0.064 N 
ATOM     16  C16 <0> d   1      -1.472  -6.296  -2.953  0.00  0.00     0.255 C 
ATOM     17  C15 <0> d   1      -2.959  -6.379  -3.310  0.00  0.00     0.152 C 
ATOM     18  N2  <0> d   1      -3.448  -5.021  -3.593  0.00  0.00    -0.363 N 
ATOM     19  C14 <0> d   1      -3.162  -3.963  -2.611  0.00  0.00     0.152 C 
ATOM     20  C13 <0> d   1      -1.664  -3.994  -2.286  0.00  0.00     0.255 C 
ATOM     21  H24 <0> d   1      -1.867  -5.617  -1.071  0.00  0.00     0.280 HD
BRANCH  18  22
ATOM     22  C17 <0> d   1      -4.159  -4.744  -4.754  0.00  0.00     0.125 A 
ATOM     23  N3  <0> d   1      -4.221  -5.651  -5.717  0.00  0.00    -0.244 NA
ATOM     24  C21 <0> d   1      -4.891  -5.430  -6.833  0.00  0.00     0.119 A 
ATOM     25  C20 <0> d   1      -5.544  -4.232  -7.042  0.00  0.00     0.019 A 
ATOM     26  C19 <0> d   1      -5.499  -3.252  -6.059  0.00  0.00     0.005 A 
ATOM     27  C18 <0> d   1      -4.795  -3.514  -4.897  0.00  0.00     0.050 A 
ENDBRANCH  18  22
ENDBRANCH   1  15
TORSDOF 3
