REMARK  6 active torsions:
REMARK  status: ('A' for Active; 'I' for Inactive)
REMARK    1  A    between atoms: C4_4  and  C7_7 
REMARK    2  A    between atoms: C7_7  and  C8_8 
REMARK    3  A    between atoms: C12_12  and  O2_30 
REMARK    4  A    between atoms: C13_13  and  C15_17 
REMARK    5  A    between atoms: C15_17  and  N2_18 
REMARK    6  A    between atoms: N3_21  and  C20_24 
ROOT
ATOM      1  C8  <0> d   1       4.432  -0.898   1.384  0.00  0.00     0.079 A 
ATOM      2  C9  <0> d   1       5.341  -0.175   2.276  0.00  0.00     0.028 A 
ATOM      3  C10 <0> d   1       6.149   0.955   2.120  0.00  0.00     0.019 A 
ATOM      4  C11 <0> d   1       6.905   1.399   3.167  0.00  0.00     0.038 A 
ATOM      5  C12 <0> d   1       6.877   0.734   4.390  0.00  0.00     0.076 A 
ATOM      6  C13 <0> d   1       6.083  -0.386   4.562  0.00  0.00     0.040 A 
ATOM      7  C14 <0> d   1       5.309  -0.850   3.508  0.00  0.00     0.124 A 
ATOM      8  O1  <0> d   1       4.457  -1.887   3.370  0.00  0.00    -0.212 OA
ATOM      9  N1  <0> d   1       3.931  -1.888   2.058  0.00  0.00    -0.131 NA
ENDROOT
BRANCH   6  10
ATOM     10  C15 <0> d   1       6.061  -1.100   5.889  0.00  0.00     0.317 C 
BRANCH  10  11
ATOM     11  N2  <0> d   1       5.006  -0.526   6.736  0.00  0.00     0.096 N 
ATOM     12  C19 <0> d   1       4.793  -1.343   7.938  0.00  0.00     0.292 C 
ATOM     13  C18 <0> d   1       3.571  -0.818   8.699  0.00  0.00     0.154 C 
ATOM     14  N3  <0> d   1       3.759   0.619   8.949  0.00  0.00    -0.362 N 
ATOM     15  C17 <0> d   1       4.111   1.483   7.812  0.00  0.00     0.154 C 
ATOM     16  C16 <0> d   1       5.311   0.867   7.086  0.00  0.00     0.292 C 
BRANCH  14  17
ATOM     17  C20 <0> d   1       3.607   1.147  10.226  0.00  0.00     0.125 A 
ATOM     18  N4  <0> d   1       3.492   0.332  11.263  0.00  0.00    -0.244 NA
ATOM     19  C24 <0> d   1       3.352   0.792  12.492  0.00  0.00     0.119 A 
ATOM     20  C23 <0> d   1       3.308   2.150  12.739  0.00  0.00     0.019 A 
ATOM     21  C22 <0> d   1       3.420   3.038  11.678  0.00  0.00     0.005 A 
ATOM     22  C21 <0> d   1       3.571   2.527  10.402  0.00  0.00     0.050 A 
ENDBRANCH  14  17
ENDBRANCH  10  11
ENDBRANCH   6  10
BRANCH   5  23
ATOM     23  O2  <0> d   1       7.635   1.188   5.422  0.00  0.00    -0.360 OA
ATOM     24  H24 <0> d   1       7.186   1.834   5.985  0.00  0.00     0.217 HD
ENDBRANCH   5  23
BRANCH   1  25
ATOM     25  C7  <0> d   1       4.129  -0.554  -0.051  0.00  0.00     0.101 C 
BRANCH  25  26
ATOM     26  C4  <0> d   1       2.957   0.393  -0.104  0.00  0.00    -0.052 A 
ATOM     27  C3  <0> d   1       3.169   1.758  -0.062  0.00  0.00     0.007 A 
ATOM     28  C2  <0> d   1       2.094   2.626  -0.112  0.00  0.00     0.001 A 
ATOM     29  C1  <0> d   1       0.808   2.129  -0.203  0.00  0.00     0.000 A 
ATOM     30  C6  <0> d   1       0.596   0.763  -0.245  0.00  0.00     0.001 A 
ATOM     31  C5  <0> d   1       1.670  -0.105  -0.194  0.00  0.00     0.007 A 
ENDBRANCH  25  26
ENDBRANCH   1  25
TORSDOF 6
