REMARK  4 active torsions:
REMARK  status: ('A' for Active; 'I' for Inactive)
REMARK    1  A    between atoms: C2_2  and  N1_3 
REMARK    2  A    between atoms: N2_6  and  C7_9 
REMARK    3  A    between atoms: C7_9  and  C8_10 
REMARK    4  A    between atoms: C15_18  and  C16_19 
ROOT
ATOM      1  C8  <0> d   1       2.512   3.562   1.582  0.00  0.00     0.041 A 
ATOM      2  C9  <0> d   1       2.283   4.459   0.551  0.00  0.00     0.118 A 
ATOM      3  C10 <0> d   1       2.292   5.830   0.790  0.00  0.00     0.041 A 
ATOM      4  C11 <0> d   1       2.536   6.306   2.048  0.00  0.00     0.021 A 
ATOM      5  C12 <0> d   1       2.773   5.414   3.095  0.00  0.00     0.051 A 
ATOM      6  C13 <0> d   1       2.762   4.028   2.866  0.00  0.00     0.101 A 
ATOM      7  O1  <0> d   1       3.015   3.374   4.020  0.00  0.00    -0.305 OA
ATOM      8  C14 <0> d   1       3.204   4.229   5.053  0.00  0.00     0.128 A 
ATOM      9  C15 <0> d   1       3.475   3.887   6.338  0.00  0.00     0.056 C 
ATOM     10  C22 <0> d   1       3.061   5.596   4.529  0.00  0.00     0.218 A 
ATOM     11  O2  <0> d   1       3.159   6.644   5.143  0.00  0.00    -0.284 OA
ATOM     12  O3  <0> d   1       2.045   3.997  -0.703  0.00  0.00    -0.191 OA
ENDROOT
BRANCH   1  13
ATOM     13  C7  <0> d   1       2.495   2.080   1.308  0.00  0.00     0.317 C 
BRANCH  13  14
ATOM     14  N2  <0> d   1       1.133   1.562   1.497  0.00  0.00     0.096 N 
ATOM     15  C4  <0> d   1       0.217   2.111   0.487  0.00  0.00     0.300 C 
ATOM     16  C3  <0> d   1      -1.203   1.612   0.766  0.00  0.00     0.265 C 
ATOM     17  N1  <0> d   1      -1.216   0.142   0.742  0.00  0.00    -0.068 N 
ATOM     18  C6  <0> d   1      -0.300  -0.406   1.751  0.00  0.00     0.265 C 
ATOM     19  H23 <0> d   1      -0.865  -0.184  -0.249  0.00  0.00     0.280 HD
ATOM     20  C5  <0> d   1       1.120   0.093   1.473  0.00  0.00     0.300 C 
BRANCH  17  21
ATOM     21  C2  <0> d   1      -2.578  -0.375   0.930  0.00  0.00     0.230 C 
ATOM     22  C1  <0> d   1      -2.595  -1.879   0.653  0.00  0.00     0.034 C 
ENDBRANCH  17  21
ENDBRANCH  13  14
ENDBRANCH   1  13
BRANCH   9  23
ATOM     23  C16 <0> d   1       3.432   2.478   6.747  0.00  0.00     0.005 A 
ATOM     24  C21 <0> d   1       3.362   2.140   8.106  0.00  0.00     0.126 A 
ATOM     25  C20 <0> d   1       3.318   0.811   8.481  0.00  0.00     0.043 A 
ATOM     26  F1  <0> d   1       3.334   3.111   9.046  0.00  0.00    -0.205 F 
ATOM     27  C19 <0> d   1       3.351  -0.183   7.520  0.00  0.00     0.003 A 
ATOM     28  C18 <0> d   1       3.425   0.143   6.176  0.00  0.00     0.001 A 
ATOM     29  C17 <0> d   1       3.465   1.463   5.783  0.00  0.00     0.014 A 
ENDBRANCH   9  23
TORSDOF 4
