REMARK  6 active torsions:
REMARK  status: ('A' for Active; 'I' for Inactive)
REMARK    1  A    between atoms: C2_2  and  N1_3 
REMARK    2  A    between atoms: C4_5  and  C12_14 
REMARK    3  A    between atoms: C9_10  and  O1_12 
REMARK    4  A    between atoms: C18_21  and  O4_33 
REMARK    5  A    between atoms: C19_22  and  C21_25 
REMARK    6  A    between atoms: C21_25  and  N2_26 
ROOT
ATOM      1  C12 <0> d   1       2.127   6.362  -5.929  0.00  0.00     0.055 C 
ATOM      2  C13 <0> d   1       1.597   5.108  -5.970  0.00  0.00     0.128 A 
ATOM      3  C14 <0> d   1       0.618   4.650  -6.892  0.00  0.00     0.218 A 
ATOM      4  O2  <0> d   1       0.091   5.286  -7.789  0.00  0.00    -0.284 OA
ATOM      5  C15 <0> d   1       0.376   3.243  -6.530  0.00  0.00     0.051 A 
ATOM      6  C16 <0> d   1      -0.459   2.249  -7.042  0.00  0.00     0.021 A 
ATOM      7  C17 <0> d   1      -0.461   1.005  -6.478  0.00  0.00     0.038 A 
ATOM      8  C18 <0> d   1       0.371   0.724  -5.397  0.00  0.00     0.076 A 
ATOM      9  C19 <0> d   1       1.201   1.702  -4.875  0.00  0.00     0.036 A 
ATOM     10  C20 <0> d   1       1.215   2.971  -5.437  0.00  0.00     0.101 A 
ATOM     11  O3  <0> d   1       1.914   4.087  -5.138  0.00  0.00    -0.305 OA
ENDROOT
BRANCH   1  12
ATOM     12  C4  <0> d   1       3.131   6.699  -4.923  0.00  0.00    -0.005 A 
ATOM     13  C3  <0> d   1       3.642   5.863  -3.953  0.00  0.00     0.103 A 
ATOM     14  N1  <0> d   1       4.553   6.537  -3.209  0.00  0.00    -0.356 N 
ATOM     15  C6  <0> d   1       4.678   7.838  -3.657  0.00  0.00     0.045 A 
ATOM     16  C5  <0> d   1       3.806   7.999  -4.746  0.00  0.00     0.005 A 
ATOM     17  C7  <0> d   1       5.460   8.911  -3.243  0.00  0.00     0.033 A 
ATOM     18  C10 <0> d   1       3.719   9.227  -5.396  0.00  0.00     0.051 A 
ATOM     19  C9  <0> d   1       4.504  10.283  -4.971  0.00  0.00     0.069 A 
ATOM     20  C8  <0> d   1       5.371  10.121  -3.896  0.00  0.00     0.039 A 
BRANCH  14  21
ATOM     21  C2  <0> d   1       5.301   5.966  -2.086  0.00  0.00     0.124 C 
ATOM     22  C1  <0> d   1       4.580   6.287  -0.776  0.00  0.00     0.027 C 
ENDBRANCH  14  21
BRANCH  19  23
ATOM     23  O1  <0> d   1       4.427  11.483  -5.606  0.00  0.00    -0.356 OA
ATOM     24  C11 <0> d   1       5.266  12.531  -5.116  0.00  0.00     0.210 C 
ENDBRANCH  19  23
ENDBRANCH   1  12
BRANCH   9  25
ATOM     25  C21 <0> d   1       2.093   1.387  -3.701  0.00  0.00     0.279 C 
BRANCH  25  26
ATOM     26  N2  <0> d   1       1.379   1.681  -2.451  0.00  0.00    -0.067 N 
ATOM     27  C26 <0> d   1       0.012   1.147  -2.488  0.00  0.00     0.235 C 
ATOM     28  C25 <0> d   1      -0.746   1.595  -1.236  0.00  0.00     0.032 C 
ATOM     29  C24 <0> d   1      -0.013   1.086   0.008  0.00  0.00    -0.015 C 
ATOM     30  C23 <0> d   1       1.423   1.617  -0.003  0.00  0.00     0.032 C 
ATOM     31  C27 <0> d   1      -0.731   1.581   1.265  0.00  0.00     0.010 C 
ATOM     32  C22 <0> d   1       2.118   1.169  -1.290  0.00  0.00     0.235 C 
ATOM     33  H30 <0> d   1       1.309   2.774  -2.349  0.00  0.00     0.280 HD
ENDBRANCH  25  26
ENDBRANCH   9  25
BRANCH   8  34
ATOM     34  O4  <0> d   1       0.364  -0.517  -4.848  0.00  0.00    -0.360 OA
ATOM     35  H31 <0> d   1       1.020  -0.744  -3.994  0.00  0.00     0.217 HD
ENDBRANCH   8  34
TORSDOF 6
