REMARK  7 active torsions:
REMARK  status: ('A' for Active; 'I' for Inactive)
REMARK       I    between atoms: S_1  and  C_15 
REMARK       I    between atoms: S_1  and  C_18 
REMARK    1  A    between atoms: O_2  and  C_13 
REMARK    2  A    between atoms: O_4  and  C_17 
REMARK    3  A    between atoms: N_7  and  C_19 
REMARK    4  A    between atoms: N_8  and  C_20 
REMARK    5  A    between atoms: C_10  and  C_13 
REMARK    6  A    between atoms: C_14  and  C_17 
REMARK    7  A    between atoms: C_18  and  C_19 
ROOT
HETATM    1  S   LIG     1      -1.957  -0.748  -1.058  1.00  0.00     0.000 SA
HETATM    2  O   LIG     1       2.492   1.545   1.440  1.00  0.00     0.000 OA
HETATM    3  N   LIG     1       1.660   0.647  -0.577  1.00  0.00     0.000 NA
HETATM    4  C   LIG     1       2.075  -0.722  -0.954  1.00  0.00     0.000 A 
HETATM    5  C   LIG     1       2.979  -0.694   0.308  1.00  0.00     0.000 A 
HETATM    6  C   LIG     1       0.760  -1.504  -1.053  1.00  0.00     0.000 C 
HETATM    7  C   LIG     1       2.415   0.723   0.556  1.00  0.00     0.000 A 
HETATM    8  C   LIG     1       0.299   0.753  -0.630  1.00  0.00     0.000 C 
HETATM    9  C   LIG     1      -0.279  -0.420  -0.917  1.00  0.00     0.000 C 
HETATM   10  C   LIG     1      -2.339  -1.200   0.651  1.00  0.00     0.000 C 
ENDROOT
BRANCH   8  11
HETATM   11  C   LIG     1      -0.351   2.025  -0.333  1.00  0.00     0.000 C 
HETATM   12  O   LIG     1      -1.445   2.140   0.199  1.00  0.00     0.000 OA
BRANCH  11  13
HETATM   13  O   LIG     1       0.437   3.047  -0.733  1.00  0.00     0.000 OA
HETATM   14  H   LIG     1       0.030   3.920  -0.547  1.00  0.00     0.000 HD
ENDBRANCH  11  13
ENDBRANCH   8  11
BRANCH  10  15
HETATM   15  C   LIG     1      -3.803  -1.589   0.789  1.00  0.00     0.000 C 
BRANCH  15  16
HETATM   16  N   LIG     1      -4.632  -0.442   0.410  1.00  0.00     0.000 NA
HETATM   17  C   LIG     1      -5.900  -0.639   0.453  1.00  0.00     0.000 C 
BRANCH  17  18
HETATM   18  N   LIG     1      -6.973   0.164   0.180  1.00  0.00     0.000 N 
HETATM   19  HN1 LIG     1      -7.926  -0.172   0.273  1.00  0.00     0.000 HD
HETATM   20  HN2 LIG     1      -6.846   1.123  -0.124  1.00  0.00     0.000 HD
ENDBRANCH  17  18
ENDBRANCH  15  16
ENDBRANCH  10  15
BRANCH   5  21
HETATM   21  C   LIG     1       4.474  -0.748   0.101  1.00  0.00     0.000 C 
HETATM   22  C   LIG     1       5.220  -0.246   1.333  1.00  0.00     0.000 C 
BRANCH  21  23
HETATM   23  O   LIG     1       4.868  -2.093  -0.167  1.00  0.00     0.000 OA
HETATM   24  H   LIG     1       4.417  -2.373  -0.981  1.00  0.00     0.000 HD
ENDBRANCH  21  23
ENDBRANCH   5  21
TORSDOF 9
