REMARK  9 active torsions:
REMARK  status: ('A' for Active; 'I' for Inactive)
REMARK    1  A    between atoms: C2_2  and  N1_3 
REMARK    2  A    between atoms: C4_5  and  C11_12 
REMARK    3  A    between atoms: C17_19  and  O3_33 
REMARK    4  A    between atoms: C18_20  and  C20_23 
REMARK    5  A    between atoms: C20_23  and  N2_24 
REMARK    6  A    between atoms: N2_24  and  C21_25 
REMARK    7  A    between atoms: N2_24  and  C25_29 
REMARK    8  A    between atoms: C21_25  and  C22_26 
REMARK    9  A    between atoms: C25_29  and  C26_30 
ROOT
ATOM      1  C11 <0> d   1      -2.266   1.988  -0.589  0.00  0.00     0.055 C 
ATOM      2  C12 <0> d   1      -2.590   0.666  -0.538  0.00  0.00     0.128 A 
ATOM      3  C13 <0> d   1      -3.907   0.134  -0.509  0.00  0.00     0.218 A 
ATOM      4  O1  <0> d   1      -4.957   0.755  -0.524  0.00  0.00    -0.284 OA
ATOM      5  C14 <0> d   1      -3.732  -1.328  -0.460  0.00  0.00     0.051 A 
ATOM      6  C15 <0> d   1      -4.622  -2.401  -0.417  0.00  0.00     0.021 A 
ATOM      7  C16 <0> d   1      -4.144  -3.680  -0.369  0.00  0.00     0.038 A 
ATOM      8  C17 <0> d   1      -2.772  -3.915  -0.363  0.00  0.00     0.076 A 
ATOM      9  C18 <0> d   1      -1.876  -2.860  -0.405  0.00  0.00     0.036 A 
ATOM     10  C19 <0> d   1      -2.346  -1.554  -0.454  0.00  0.00     0.101 A 
ATOM     11  O2  <0> d   1      -1.711  -0.363  -0.501  0.00  0.00    -0.305 OA
ENDROOT
BRANCH   1  12
ATOM     12  C4  <0> d   1      -0.874   2.393  -0.773  0.00  0.00    -0.005 A 
ATOM     13  C3  <0> d   1       0.206   1.565  -0.988  0.00  0.00     0.103 A 
ATOM     14  N1  <0> d   1       1.331   2.312  -1.115  0.00  0.00    -0.356 N 
ATOM     15  C6  <0> d   1       1.038   3.654  -0.984  0.00  0.00     0.045 A 
ATOM     16  C5  <0> d   1      -0.344   3.770  -0.763  0.00  0.00     0.002 A 
ATOM     17  C7  <0> d   1       1.819   4.804  -1.033  0.00  0.00     0.030 A 
ATOM     18  C10 <0> d   1      -0.922   5.025  -0.595  0.00  0.00     0.014 A 
ATOM     19  C9  <0> d   1      -0.131   6.153  -0.646  0.00  0.00     0.001 A 
ATOM     20  C8  <0> d   1       1.234   6.041  -0.865  0.00  0.00     0.002 A 
BRANCH  14  21
ATOM     21  C2  <0> d   1       2.670   1.770  -1.356  0.00  0.00     0.124 C 
ATOM     22  C1  <0> d   1       3.487   1.834  -0.064  0.00  0.00     0.027 C 
ENDBRANCH  14  21
ENDBRANCH   1  12
BRANCH   9  23
ATOM     23  C20 <0> d   1      -0.393  -3.127  -0.397  0.00  0.00     0.279 C 
BRANCH  23  24
ATOM     24  N2  <0> d   1       0.101  -3.108   0.986  0.00  0.00    -0.066 N 
ATOM     25  H34 <0> d   1      -0.286  -2.199   1.470  0.00  0.00     0.280 HD
BRANCH  24  26
ATOM     26  C21 <0> d   1      -0.397  -4.267   1.740  0.00  0.00     0.239 C 
BRANCH  26  27
ATOM     27  C22 <0> d   1      -0.173  -4.037   3.236  0.00  0.00     0.003 C 
ATOM     28  C23 <0> d   1      -1.018  -2.850   3.702  0.00  0.00     0.011 C 
ATOM     29  C24 <0> d   1      -0.582  -5.291   4.011  0.00  0.00     0.011 C 
ENDBRANCH  26  27
ENDBRANCH  24  26
BRANCH  24  30
ATOM     30  C25 <0> d   1       1.568  -3.048   1.021  0.00  0.00     0.239 C 
BRANCH  30  31
ATOM     31  C26 <0> d   1       2.027  -1.620   0.717  0.00  0.00     0.003 C 
ATOM     32  C27 <0> d   1       1.539  -0.681   1.822  0.00  0.00     0.011 C 
ATOM     33  C28 <0> d   1       3.555  -1.579   0.651  0.00  0.00     0.011 C 
ENDBRANCH  30  31
ENDBRANCH  24  30
ENDBRANCH  23  24
ENDBRANCH   9  23
BRANCH   8  34
ATOM     34  O3  <0> d   1      -2.308  -5.190  -0.316  0.00  0.00    -0.360 OA
ATOM     35  H35 <0> d   1      -1.225  -5.381  -0.310  0.00  0.00     0.217 HD
ENDBRANCH   8  34
TORSDOF 9
