REMARK  5 active torsions:
REMARK  status: ('A' for Active; 'I' for Inactive)
REMARK    1  A    between atoms: C2_2  and  N1_3 
REMARK    2  A    between atoms: N1_3  and  C3_4 
REMARK    3  A    between atoms: N1_3  and  C5_6 
REMARK    4  A    between atoms: C5_6  and  C6_7 
REMARK    5  A    between atoms: C13_15  and  C15_18 
ROOT
ATOM      1  C6  <0> d   1       2.235   4.021  -0.546  0.00  0.00     0.039 A 
ATOM      2  C7  <0> d   1       2.339   5.384  -0.769  0.00  0.00     0.118 A 
ATOM      3  C8  <0> d   1       1.215   6.136  -1.106  0.00  0.00     0.041 A 
ATOM      4  C9  <0> d   1      -0.007   5.535  -1.220  0.00  0.00     0.021 A 
ATOM      5  C10 <0> d   1      -0.127   4.163  -0.998  0.00  0.00     0.050 A 
ATOM      6  C11 <0> d   1       1.001   3.396  -0.658  0.00  0.00     0.100 A 
ATOM      7  O1  <0> d   1       0.883   2.070  -0.443  0.00  0.00    -0.320 OA
ATOM      8  C12 <0> d   1      -0.274   1.412  -0.534  0.00  0.00     0.161 A 
ATOM      9  C13 <0> d   1      -1.443   2.029  -0.860  0.00  0.00     0.073 A 
ATOM     10  C14 <0> d   1      -1.430   3.482  -1.111  0.00  0.00     0.199 A 
ATOM     11  O2  <0> d   1      -2.445   4.090  -1.403  0.00  0.00    -0.286 OA
ATOM     12  O3  <0> d   1       3.547   5.994  -0.659  0.00  0.00    -0.191 OA
ENDROOT
BRANCH   9  13
ATOM     13  C15 <0> d   1      -2.699   1.260  -0.956  0.00  0.00     0.115 A 
ATOM     14  S1  <0> d   1      -4.342   1.840  -1.355  0.00  0.00    -0.067 SA
ATOM     15  C21 <0> d   1      -5.167   0.271  -1.237  0.00  0.00     0.035 A 
ATOM     16  C16 <0> d   1      -4.110  -0.601  -0.886  0.00  0.00     0.075 A 
ATOM     17  C20 <0> d   1      -6.460  -0.163  -1.399  0.00  0.00     0.021 A 
ATOM     18  N2  <0> d   1      -2.896  -0.027  -0.763  0.00  0.00    -0.239 NA
ATOM     19  C17 <0> d   1      -4.456  -1.961  -0.707  0.00  0.00     0.033 A 
ATOM     20  C18 <0> d   1      -5.739  -2.381  -0.870  0.00  0.00     0.002 A 
ATOM     21  C19 <0> d   1      -6.756  -1.501  -1.215  0.00  0.00     0.002 A 
ENDBRANCH   9  13
BRANCH   1  22
ATOM     22  C5  <0> d   1       3.458   3.220  -0.183  0.00  0.00     0.279 C 
BRANCH  22  23
ATOM     23  N1  <0> d   1       4.098   2.720  -1.407  0.00  0.00    -0.068 N 
ATOM     24  H20 <0> d   1       4.249   3.575  -2.083  0.00  0.00     0.280 HD
BRANCH  23  25
ATOM     25  C2  <0> d   1       5.415   2.139  -1.113  0.00  0.00     0.231 C 
ATOM     26  C1  <0> d   1       6.424   3.262  -0.866  0.00  0.00     0.034 C 
ENDBRANCH  23  25
BRANCH  23  27
ATOM     27  C3  <0> d   1       3.235   1.749  -2.093  0.00  0.00     0.231 C 
ATOM     28  C4  <0> d   1       3.744   1.533  -3.520  0.00  0.00     0.034 C 
ENDBRANCH  23  27
ENDBRANCH  22  23
ENDBRANCH   1  22
TORSDOF 5
