REMARK  6 active torsions:
REMARK  status: ('A' for Active; 'I' for Inactive)
REMARK    1  A    between atoms: N2_5  and  C6_8 
REMARK    2  A    between atoms: C6_8  and  C7_9 
REMARK    3  A    between atoms: C8_10  and  O4_32 
REMARK    4  A    between atoms: C13_16  and  C23_28 
REMARK    5  A    between atoms: C14_17  and  C16_20 
REMARK    6  A    between atoms: C19_23  and  O3_26 
ROOT
ATOM      1  C7  <0> d   1       2.498  -4.201   1.378  0.00  0.00     0.035 A 
ATOM      2  C8  <0> d   1       3.828  -4.577   1.292  0.00  0.00     0.076 A 
ATOM      3  C9  <0> d   1       4.412  -5.355   2.288  0.00  0.00     0.038 A 
ATOM      4  C10 <0> d   1       3.678  -5.756   3.369  0.00  0.00     0.021 A 
ATOM      5  C11 <0> d   1       2.338  -5.383   3.470  0.00  0.00     0.050 A 
ATOM      6  C12 <0> d   1       1.737  -4.598   2.470  0.00  0.00     0.101 A 
ATOM      7  O1  <0> d   1       0.440  -4.249   2.567  0.00  0.00    -0.303 OA
ATOM      8  C13 <0> d   1      -0.232  -4.354   3.715  0.00  0.00     0.174 C 
ATOM      9  C14 <0> d   1       0.218  -5.087   4.767  0.00  0.00     0.064 C 
ATOM     10  C15 <0> d   1       1.512  -5.787   4.624  0.00  0.00     0.198 C 
ATOM     11  O2  <0> d   1       1.880  -6.637   5.417  0.00  0.00    -0.286 OA
ENDROOT
BRANCH   1  12
ATOM     12  C6  <0> d   1       1.879  -3.358   0.293  0.00  0.00     0.279 C 
BRANCH  12  13
ATOM     13  N2  <0> d   1       2.052  -1.936   0.619  0.00  0.00    -0.064 N 
ATOM     14  C3  <0> d   1       1.556  -1.115  -0.494  0.00  0.00     0.265 C 
ATOM     15  C2  <0> d   1       1.754   0.366  -0.163  0.00  0.00     0.299 C 
ATOM     16  N1  <0> d   1       1.024   0.691   1.071  0.00  0.00     0.087 N 
ATOM     17  C1  <0> d   1       1.143   2.119   1.392  0.00  0.00     0.310 C 
ATOM     18  C5  <0> d   1       1.493  -0.141   2.188  0.00  0.00     0.299 C 
ATOM     19  C4  <0> d   1       1.297  -1.618   1.838  0.00  0.00     0.265 C 
ATOM     20  H24 <0> d   1       3.031  -1.743   0.769  0.00  0.00     0.280 HD
ENDBRANCH  12  13
ENDBRANCH   1  12
BRANCH   2  21
ATOM     21  O4  <0> d   1       4.569  -4.183   0.225  0.00  0.00    -0.360 OA
ATOM     22  H23 <0> d   1       5.019  -3.336   0.350  0.00  0.00     0.217 HD
ENDBRANCH   2  21
BRANCH   8  23
ATOM     23  C23 <0> d   1      -1.546  -3.629   3.851  0.00  0.00     0.440 C 
ATOM     24  F1  <0> d   1      -1.993  -3.718   5.174  0.00  0.00    -0.164 F 
ATOM     25  F2  <0> d   1      -1.375  -2.284   3.506  0.00  0.00    -0.164 F 
ATOM     26  F3  <0> d   1      -2.491  -4.212   3.000  0.00  0.00    -0.164 F 
ENDBRANCH   8  23
BRANCH   9  27
ATOM     27  C16 <0> d   1      -0.571  -5.190   6.018  0.00  0.00    -0.019 A 
ATOM     28  C21 <0> d   1      -0.173  -4.488   7.154  0.00  0.00     0.015 A 
ATOM     29  C20 <0> d   1      -0.913  -4.580   8.315  0.00  0.00     0.037 A 
ATOM     30  C19 <0> d   1      -2.045  -5.382   8.356  0.00  0.00     0.068 A 
ATOM     31  C18 <0> d   1      -2.441  -6.088   7.228  0.00  0.00     0.037 A 
ATOM     32  C17 <0> d   1      -1.709  -5.994   6.062  0.00  0.00     0.015 A 
BRANCH  30  33
ATOM     33  O3  <0> d   1      -2.769  -5.476   9.502  0.00  0.00    -0.356 OA
ATOM     34  C22 <0> d   1      -2.306  -4.723  10.625  0.00  0.00     0.210 C 
ENDBRANCH  30  33
ENDBRANCH   9  27
TORSDOF 6
