REMARK  8 active torsions:
REMARK  status: ('A' for Active; 'I' for Inactive)
REMARK    1  A    between atoms: N2_5  and  C6_8 
REMARK    2  A    between atoms: C6_8  and  C7_9 
REMARK    3  A    between atoms: C8_10  and  O6_35 
REMARK    4  A    between atoms: C13_16  and  C24_31 
REMARK    5  A    between atoms: C14_17  and  O3_20 
REMARK    6  A    between atoms: O3_20  and  C16_21 
REMARK    7  A    between atoms: C19_24  and  C22_27 
REMARK    8  A    between atoms: C22_27  and  O5_29 
ROOT
ATOM      1  C7  <0> d   1       1.881  -4.688   0.789  0.00  0.00     0.038 A 
ATOM      2  C8  <0> d   1       3.184  -4.900   0.371  0.00  0.00     0.076 A 
ATOM      3  C9  <0> d   1       4.156  -5.330   1.272  0.00  0.00     0.038 A 
ATOM      4  C10 <0> d   1       3.836  -5.548   2.582  0.00  0.00     0.021 A 
ATOM      5  C11 <0> d   1       2.527  -5.338   3.018  0.00  0.00     0.052 A 
ATOM      6  C12 <0> d   1       1.541  -4.899   2.117  0.00  0.00     0.101 A 
ATOM      7  O1  <0> d   1       0.281  -4.695   2.551  0.00  0.00    -0.301 OA
ATOM      8  C13 <0> d   1      -0.080  -4.890   3.826  0.00  0.00     0.197 A 
ATOM      9  C14 <0> d   1       0.785  -5.304   4.774  0.00  0.00     0.165 A 
ATOM     10  C15 <0> d   1       2.141  -5.562   4.422  0.00  0.00     0.221 A 
ATOM     11  O2  <0> d   1       2.951  -5.939   5.252  0.00  0.00    -0.284 OA
ENDROOT
BRANCH   9  12
ATOM     12  O3  <0> d   1       0.363  -5.485   6.055  0.00  0.00    -0.304 OA
BRANCH  12  13
ATOM     13  C16 <0> d   1       0.851  -4.654   7.010  0.00  0.00     0.076 A 
ATOM     14  C21 <0> d   1       0.538  -4.874   8.346  0.00  0.00     0.038 A 
ATOM     15  C20 <0> d   1       1.036  -4.036   9.319  0.00  0.00     0.020 A 
ATOM     16  C19 <0> d   1       1.849  -2.957   8.960  0.00  0.00     0.039 A 
ATOM     17  C18 <0> d   1       2.157  -2.736   7.614  0.00  0.00     0.020 A 
ATOM     18  C17 <0> d   1       1.660  -3.582   6.648  0.00  0.00     0.038 A 
BRANCH  16  19
ATOM     19  C22 <0> d   1       2.380  -2.054   9.998  0.00  0.00     0.292 C 
ATOM     20  O4  <0> d   1       3.087  -1.117   9.684  0.00  0.00    -0.259 OA
BRANCH  19  21
ATOM     21  O5  <0> d   1       2.082  -2.269  11.294  0.00  0.00    -0.323 OA
ATOM     22  C23 <0> d   1       2.631  -1.355  12.246  0.00  0.00     0.213 C 
ENDBRANCH  19  21
ENDBRANCH  16  19
ENDBRANCH  12  13
ENDBRANCH   9  12
BRANCH   8  23
ATOM     23  C24 <0> d   1      -1.513  -4.636   4.218  0.00  0.00     0.442 C 
ATOM     24  F1  <0> d   1      -1.708  -5.026   5.548  0.00  0.00    -0.164 F 
ATOM     25  F2  <0> d   1      -1.798  -3.273   4.085  0.00  0.00    -0.164 F 
ATOM     26  F3  <0> d   1      -2.362  -5.374   3.386  0.00  0.00    -0.164 F 
ENDBRANCH   8  23
BRANCH   1  27
ATOM     27  C6  <0> d   1       0.838  -4.223  -0.195  0.00  0.00     0.317 C 
BRANCH  27  28
ATOM     28  N2  <0> d   1       0.812  -2.755  -0.225  0.00  0.00     0.096 N 
ATOM     29  C3  <0> d   1      -0.017  -2.265  -1.334  0.00  0.00     0.303 C 
ATOM     30  C2  <0> d   1       0.046  -0.736  -1.379  0.00  0.00     0.302 C 
ATOM     31  N1  <0> d   1      -0.420  -0.192  -0.096  0.00  0.00     0.087 N 
ATOM     32  C1  <0> d   1      -0.446   1.277  -0.126  0.00  0.00     0.310 C 
ATOM     33  C5  <0> d   1       0.409  -0.681   1.014  0.00  0.00     0.302 C 
ATOM     34  C4  <0> d   1       0.346  -2.210   1.058  0.00  0.00     0.303 C 
ENDBRANCH  27  28
ENDBRANCH   1  27
BRANCH   2  35
ATOM     35  O6  <0> d   1       3.518  -4.688  -0.927  0.00  0.00    -0.360 OA
ATOM     36  H23 <0> d   1       3.811  -3.786  -1.116  0.00  0.00     0.217 HD
ENDBRANCH   2  35
TORSDOF 8
