REMARK  6 active torsions:
REMARK  status: ('A' for Active; 'I' for Inactive)
REMARK    1  A    between atoms: N1_4  and  C7_9 
REMARK    2  A    between atoms: C7_9  and  C8_10 
REMARK    3  A    between atoms: C8_10  and  O2_11 
REMARK    4  A    between atoms: O2_11  and  C9_12 
REMARK    5  A    between atoms: C12_15  and  C15_19 
REMARK    6  A    between atoms: C16_20  and  C18_25 
ROOT
ATOM      1  C9  <0> d   1       0.239  -5.926  -2.022  0.00  0.00     0.071 A 
ATOM      2  C10 <0> d   1       1.128  -6.982  -2.171  0.00  0.00     0.038 A 
ATOM      3  C11 <0> d   1       0.656  -8.260  -2.386  0.00  0.00     0.019 A 
ATOM      4  C12 <0> d   1      -0.716  -8.494  -2.453  0.00  0.00     0.032 A 
ATOM      5  C13 <0> d   1      -1.611  -7.430  -2.302  0.00  0.00     0.122 A 
ATOM      6  C14 <0> d   1      -1.128  -6.151  -2.082  0.00  0.00     0.077 A 
ATOM      7  O3  <0> d   1      -2.949  -7.651  -2.366  0.00  0.00    -0.191 OA
ENDROOT
BRANCH   4   8
ATOM      8  C15 <0> d   1      -1.226  -9.867  -2.683  0.00  0.00     0.102 A 
ATOM      9  C16 <0> d   1      -0.766 -10.773  -3.672  0.00  0.00     0.022 A 
ATOM     10  C17 <0> d   1      -1.493 -11.919  -3.547  0.00  0.00     0.124 A 
ATOM     11  N2  <0> d   1      -2.365 -11.746  -2.533  0.00  0.00    -0.288 N 
ATOM     12  H3  <0> d   1      -3.009 -12.401  -2.221  0.00  0.00     0.188 HD
ATOM     13  N3  <0> d   1      -2.180 -10.463  -2.004  0.00  0.00    -0.174 NA
BRANCH   9  14
ATOM     14  C18 <0> d   1       0.309 -10.520  -4.663  0.00  0.00    -0.022 A 
ATOM     15  C23 <0> d   1       1.398 -11.385  -4.749  0.00  0.00     0.012 A 
ATOM     16  C22 <0> d   1       2.392 -11.148  -5.677  0.00  0.00     0.001 A 
ATOM     17  C21 <0> d   1       2.315 -10.048  -6.512  0.00  0.00     0.000 A 
ATOM     18  C20 <0> d   1       1.239  -9.183  -6.427  0.00  0.00     0.001 A 
ATOM     19  C19 <0> d   1       0.236  -9.414  -5.507  0.00  0.00     0.012 A 
ENDBRANCH   9  14
ENDBRANCH   4   8
BRANCH   1  20
ATOM     20  O2  <0> d   1       0.710  -4.668  -1.812  0.00  0.00    -0.349 OA
BRANCH  20  21
ATOM     21  C8  <0> d   1       2.129  -4.507  -1.762  0.00  0.00     0.206 C 
BRANCH  21  22
ATOM     22  C7  <0> d   1       2.466  -3.035  -1.519  0.00  0.00     0.299 C 
BRANCH  22  23
ATOM     23  N1  <0> d   1       1.983  -2.634  -0.191  0.00  0.00     0.095 N 
ATOM     24  C3  <0> d   1       2.074  -1.177  -0.014  0.00  0.00     0.303 C 
ATOM     25  C2  <0> d   1       1.506  -0.798   1.356  0.00  0.00     0.146 C 
ATOM     26  C1  <0> d   1       1.671   0.706   1.579  0.00  0.00     0.041 C 
ATOM     27  O1  <0> d   1       2.212  -1.512   2.374  0.00  0.00    -0.378 OA
ATOM     28  C5  <0> d   1       2.144  -2.934   2.233  0.00  0.00     0.146 C 
ATOM     29  C4  <0> d   1       2.719  -3.335   0.872  0.00  0.00     0.303 C 
ATOM     30  C6  <0> d   1       2.957  -3.599   3.346  0.00  0.00     0.041 C 
ENDBRANCH  22  23
ENDBRANCH  21  22
ENDBRANCH  20  21
ENDBRANCH   1  20
TORSDOF 6
