REMARK  5 active torsions:
REMARK  status: ('A' for Active; 'I' for Inactive)
REMARK    1  A    between atoms: C6_6  and  C11_13 
REMARK    2  A    between atoms: C11_13  and  N1_14 
REMARK    3  A    between atoms: N2_17  and  C16_20 
REMARK    4  A    between atoms: C16_20  and  C17_21 
REMARK    5  A    between atoms: C16_20  and  C23_27 
ROOT
ATOM      1  N1  <0> d   1      -0.061   1.346   1.627  0.00  0.00     0.096 N 
ATOM      2  C12 <0> d   1       0.689   0.808   0.483  0.00  0.00     0.300 C 
ATOM      3  C13 <0> d   1       0.405   1.660  -0.756  0.00  0.00     0.266 C 
ATOM      4  N2  <0> d   1       0.788   3.053  -0.487  0.00  0.00    -0.055 N 
ATOM      5  C14 <0> d   1       0.038   3.591   0.656  0.00  0.00     0.266 C 
ATOM      6  C15 <0> d   1       0.322   2.739   1.895  0.00  0.00     0.300 C 
ATOM      7  H31 <0> d   1       1.857   3.068  -0.230  0.00  0.00     0.281 HD
ENDROOT
BRANCH   1   8
ATOM      8  C11 <0> d   1       0.126   0.509   2.820  0.00  0.00     0.312 C 
BRANCH   8   9
ATOM      9  C6  <0> d   1      -0.447   1.214   4.023  0.00  0.00    -0.011 A 
ATOM     10  C5  <0> d   1      -1.880   1.144   4.325  0.00  0.00     0.012 A 
ATOM     11  C4  <0> d   1      -2.755   0.423   3.507  0.00  0.00    -0.048 A 
ATOM     12  C9  <0> d   1      -2.371   1.816   5.457  0.00  0.00     0.091 A 
ATOM     13  C3  <0> d   1      -4.086   0.376   3.814  0.00  0.00     0.014 A 
ATOM     14  C29 <0> d   1      -2.233  -0.300   2.292  0.00  0.00     0.049 C 
ATOM     15  C2  <0> d   1      -4.574   1.038   4.931  0.00  0.00    -0.059 A 
ATOM     16  C1  <0> d   1      -6.045   0.973   5.253  0.00  0.00     0.048 C 
ATOM     17  C10 <0> d   1      -3.728   1.755   5.750  0.00  0.00     0.045 A 
ATOM     18  O2  <0> d   1      -1.525   2.512   6.246  0.00  0.00    -0.275 OA
ATOM     19  C8  <0> d   1      -0.212   2.580   5.977  0.00  0.00     0.288 A 
ATOM     20  C7  <0> d   1       0.350   1.925   4.859  0.00  0.00     0.092 A 
ATOM     21  O1  <0> d   1       0.513   3.219   6.717  0.00  0.00    -0.260 OA
ENDBRANCH   8   9
ENDBRANCH   1   8
BRANCH   4  22
ATOM     22  C16 <0> d   1       0.601   3.890  -1.680  0.00  0.00     0.254 C 
BRANCH  22  23
ATOM     23  C17 <0> d   1       1.004   5.308  -1.367  0.00  0.00    -0.023 A 
ATOM     24  C22 <0> d   1       0.258   6.363  -1.859  0.00  0.00     0.009 A 
ATOM     25  C21 <0> d   1       0.626   7.663  -1.572  0.00  0.00     0.001 A 
ATOM     26  C20 <0> d   1       1.741   7.910  -0.792  0.00  0.00     0.000 A 
ATOM     27  C19 <0> d   1       2.487   6.855  -0.300  0.00  0.00     0.001 A 
ATOM     28  C18 <0> d   1       2.115   5.554  -0.583  0.00  0.00     0.009 A 
ENDBRANCH  22  23
BRANCH  22  29
ATOM     29  C23 <0> d   1       1.456   3.361  -2.803  0.00  0.00    -0.023 A 
ATOM     30  C28 <0> d   1       0.962   3.333  -4.094  0.00  0.00     0.009 A 
ATOM     31  C27 <0> d   1       1.746   2.849  -5.124  0.00  0.00     0.001 A 
ATOM     32  C26 <0> d   1       3.025   2.393  -4.864  0.00  0.00     0.000 A 
ATOM     33  C25 <0> d   1       3.519   2.421  -3.573  0.00  0.00     0.001 A 
ATOM     34  C24 <0> d   1       2.737   2.910  -2.544  0.00  0.00     0.009 A 
ENDBRANCH  22  29
ENDBRANCH   4  22
TORSDOF 5
