REMARK  5 active torsions:
REMARK  status: ('A' for Active; 'I' for Inactive)
REMARK    1  A    between atoms: C2_2  and  C4_4 
REMARK    2  A    between atoms: C7_7  and  C10_10 
REMARK    3  A    between atoms: C16_17  and  O3_29 
REMARK    4  A    between atoms: C17_18  and  C19_21 
REMARK    5  A    between atoms: C19_21  and  N1_22 
ROOT
ATOM      1  C10 <0> d   1      -5.390  -1.994   0.043  0.00  0.00     0.053 C 
ATOM      2  C11 <0> d   1      -5.862  -2.693  -1.018  0.00  0.00     0.127 A 
ATOM      3  C12 <0> d   1      -7.243  -3.170  -1.201  0.00  0.00     0.218 A 
ATOM      4  O1  <0> d   1      -8.189  -3.024  -0.446  0.00  0.00    -0.284 OA
ATOM      5  C13 <0> d   1      -7.226  -3.862  -2.502  0.00  0.00     0.051 A 
ATOM      6  C14 <0> d   1      -8.204  -4.528  -3.242  0.00  0.00     0.021 A 
ATOM      7  C15 <0> d   1      -7.884  -5.086  -4.447  0.00  0.00     0.038 A 
ATOM      8  C16 <0> d   1      -6.584  -4.993  -4.938  0.00  0.00     0.076 A 
ATOM      9  C17 <0> d   1      -5.603  -4.335  -4.213  0.00  0.00     0.036 A 
ATOM     10  C18 <0> d   1      -5.912  -3.762  -2.986  0.00  0.00     0.101 A 
ATOM     11  O2  <0> d   1      -5.152  -3.075  -2.105  0.00  0.00    -0.305 OA
ENDROOT
BRANCH   1  12
ATOM     12  C7  <0> d   1      -4.012  -1.481   0.030  0.00  0.00    -0.033 A 
ATOM     13  C6  <0> d   1      -3.145  -1.818  -1.015  0.00  0.00     0.012 A 
ATOM     14  C5  <0> d   1      -1.855  -1.333  -1.019  0.00  0.00     0.008 A 
ATOM     15  C4  <0> d   1      -1.417  -0.513   0.006  0.00  0.00    -0.055 A 
ATOM     16  C9  <0> d   1      -2.266  -0.178   1.047  0.00  0.00     0.008 A 
ATOM     17  C8  <0> d   1      -3.561  -0.651   1.063  0.00  0.00     0.012 A 
BRANCH  15  18
ATOM     18  C2  <0> d   1      -0.005   0.014  -0.007  0.00  0.00     0.010 C 
ATOM     19  C1  <0> d   1       0.977  -1.160   0.002  0.00  0.00     0.015 C 
ATOM     20  C3  <0> d   1       0.215   0.853  -1.267  0.00  0.00     0.015 C 
ENDBRANCH  15  18
ENDBRANCH   1  12
BRANCH   9  21
ATOM     21  C19 <0> d   1      -4.200  -4.242  -4.757  0.00  0.00     0.279 C 
BRANCH  21  22
ATOM     22  N1  <0> d   1      -4.069  -3.026  -5.570  0.00  0.00    -0.064 N 
ATOM     23  C23 <0> d   1      -2.674  -2.873  -6.001  0.00  0.00     0.265 C 
ATOM     24  C22 <0> d   1      -2.533  -1.596  -6.832  0.00  0.00     0.299 C 
ATOM     25  N2  <0> d   1      -3.419  -1.677  -8.002  0.00  0.00     0.087 N 
ATOM     26  C21 <0> d   1      -4.817  -1.856  -7.587  0.00  0.00     0.299 C 
ATOM     27  C24 <0> d   1      -3.271  -0.492  -8.858  0.00  0.00     0.310 C 
ATOM     28  C20 <0> d   1      -4.939  -3.131  -6.750  0.00  0.00     0.265 C 
ATOM     29  H29 <0> d   1      -4.342  -2.224  -5.022  0.00  0.00     0.280 HD
ENDBRANCH  21  22
ENDBRANCH   9  21
BRANCH   8  30
ATOM     30  O3  <0> d   1      -6.275  -5.551  -6.136  0.00  0.00    -0.360 OA
ATOM     31  H28 <0> d   1      -6.394  -4.957  -6.889  0.00  0.00     0.217 HD
ENDBRANCH   8  30
TORSDOF 5
