REMARK  3 active torsions:
REMARK  status: ('A' for Active; 'I' for Inactive)
REMARK    1  A    between atoms: C5_5  and  C17_20 
REMARK    2  A    between atoms: C10_11  and  C11_12 
REMARK    3  A    between atoms: C17_20  and  N1_21 
ROOT
ATOM      1  C1  <0> d   1       2.486   1.039  -0.078  0.00  0.00     0.049 C 
ATOM      2  C2  <0> d   1       1.170   1.773  -0.073  0.00  0.00    -0.042 A 
ATOM      3  C3  <0> d   1      -0.004   1.074  -0.092  0.00  0.00     0.048 A 
ATOM      4  C4  <0> d   1      -1.221   1.750  -0.092  0.00  0.00     0.118 A 
ATOM      5  C5  <0> d   1      -1.258   3.135  -0.062  0.00  0.00     0.041 A 
ATOM      6  C6  <0> d   1      -0.073   3.861  -0.044  0.00  0.00     0.102 A 
ATOM      7  C7  <0> d   1       1.148   3.168  -0.049  0.00  0.00     0.057 A 
ATOM      8  C8  <0> d   1       2.208   4.192  -0.026  0.00  0.00     0.219 A 
ATOM      9  O1  <0> d   1       3.413   4.018  -0.023  0.00  0.00    -0.284 OA
ATOM     10  C9  <0> d   1       1.482   5.473  -0.009  0.00  0.00     0.128 A 
ATOM     11  C10 <0> d   1       2.038   6.709   0.016  0.00  0.00     0.053 C 
ATOM     12  O2  <0> d   1       0.158   5.192  -0.020  0.00  0.00    -0.305 OA
ATOM     13  O4  <0> d   1      -2.381   1.047  -0.116  0.00  0.00    -0.191 OA
ENDROOT
BRANCH  11  14
ATOM     14  C11 <0> d   1       1.185   7.902  -0.082  0.00  0.00    -0.032 A 
ATOM     15  C16 <0> d   1       1.760   9.173  -0.181  0.00  0.00     0.035 A 
ATOM     16  C15 <0> d   1       0.952  10.287  -0.277  0.00  0.00     0.034 A 
ATOM     17  C14 <0> d   1      -0.427  10.149  -0.265  0.00  0.00     0.024 A 
ATOM     18 Cl1  <0> d   1       1.663  11.865  -0.406  0.00  0.00    -0.084 Cl
ATOM     19  C13 <0> d   1      -1.003   8.895  -0.162  0.00  0.00     0.003 A 
ATOM     20  C12 <0> d   1      -0.209   7.772  -0.070  0.00  0.00     0.011 A 
ENDBRANCH  11  14
BRANCH   5  21
ATOM     21  C17 <0> d   1      -2.582   3.854  -0.057  0.00  0.00     0.317 C 
BRANCH  21  22
ATOM     22  N1  <0> d   1      -3.005   4.110  -1.441  0.00  0.00     0.097 N 
ATOM     23  C21 <0> d   1      -4.393   4.593  -1.486  0.00  0.00     0.299 C 
ATOM     24  C20 <0> d   1      -4.811   4.790  -2.946  0.00  0.00     0.198 C 
ATOM     25  O3  <0> d   1      -3.902   5.694  -3.579  0.00  0.00    -0.388 OA
ATOM     26  C19 <0> d   1      -2.542   5.255  -3.554  0.00  0.00     0.198 C 
ATOM     27  C18 <0> d   1      -2.100   5.063  -2.100  0.00  0.00     0.299 C 
ENDBRANCH  21  22
ENDBRANCH   5  21
TORSDOF 3
