REMARK  6 active torsions:
REMARK  status: ('A' for Active; 'I' for Inactive)
REMARK    1  A    between atoms: C5_5  and  C6_7 
REMARK    2  A    between atoms: C13_15  and  C15_18 
REMARK    3  A    between atoms: C15_18  and  N1_19 
REMARK    4  A    between atoms: N2_22  and  C20_25 
REMARK    5  A    between atoms: C20_25  and  C21_26 
REMARK    6  A    between atoms: C21_26  and  O4_27 
ROOT
ATOM      1  C6  <0> d   1       2.040  -3.175   0.149  0.00  0.00     0.078 C 
ATOM      2  C7  <0> d   1       3.342  -2.779   0.247  0.00  0.00     0.129 A 
ATOM      3  C8  <0> d   1       4.464  -3.640   0.384  0.00  0.00     0.218 A 
ATOM      4  O2  <0> d   1       4.461  -4.858   0.439  0.00  0.00    -0.284 OA
ATOM      5  C9  <0> d   1       5.632  -2.744   0.447  0.00  0.00     0.051 A 
ATOM      6  C10 <0> d   1       7.003  -2.961   0.579  0.00  0.00     0.021 A 
ATOM      7  C11 <0> d   1       7.861  -1.898   0.607  0.00  0.00     0.041 A 
ATOM      8  C12 <0> d   1       7.370  -0.599   0.506  0.00  0.00     0.118 A 
ATOM      9  C13 <0> d   1       6.010  -0.368   0.375  0.00  0.00     0.039 A 
ATOM     10  C14 <0> d   1       5.126  -1.437   0.344  0.00  0.00     0.101 A 
ATOM     11  O3  <0> d   1       3.783  -1.499   0.222  0.00  0.00    -0.305 OA
ATOM     12  O5  <0> d   1       8.231   0.450   0.535  0.00  0.00    -0.191 OA
ENDROOT
BRANCH   9  13
ATOM     13  C15 <0> d   1       5.492   1.043   0.267  0.00  0.00     0.279 C 
BRANCH  13  14
ATOM     14  N1  <0> d   1       5.445   1.441  -1.146  0.00  0.00    -0.064 N 
ATOM     15  C19 <0> d   1       5.054   2.853  -1.244  0.00  0.00     0.265 C 
ATOM     16  C18 <0> d   1       5.024   3.273  -2.715  0.00  0.00     0.300 C 
ATOM     17  N2  <0> d   1       4.064   2.430  -3.443  0.00  0.00     0.093 N 
ATOM     18  C17 <0> d   1       4.429   1.011  -3.333  0.00  0.00     0.300 C 
ATOM     19  C16 <0> d   1       4.464   0.609  -1.856  0.00  0.00     0.265 C 
ATOM     20  H24 <0> d   1       6.356   1.315  -1.561  0.00  0.00     0.280 HD
BRANCH  17  21
ATOM     21  C20 <0> d   1       3.964   2.840  -4.850  0.00  0.00     0.298 C 
BRANCH  21  22
ATOM     22  C21 <0> d   1       2.660   2.306  -5.445  0.00  0.00     0.194 C 
BRANCH  22  23
ATOM     23  O4  <0> d   1       1.550   2.920  -4.787  0.00  0.00    -0.399 OA
ATOM     24  H23 <0> d   1       0.688   2.627  -5.115  0.00  0.00     0.209 HD
ENDBRANCH  22  23
ENDBRANCH  21  22
ENDBRANCH  17  21
ENDBRANCH  13  14
ENDBRANCH   9  13
BRANCH   1  25
ATOM     25  C5  <0> d   1       1.016  -2.211   0.010  0.00  0.00     0.078 A 
ATOM     26  C4  <0> d   1      -0.337  -2.470  -0.099  0.00  0.00     0.040 A 
ATOM     27  C3  <0> d   1      -0.972  -1.225  -0.217  0.00  0.00     0.035 A 
ATOM     28  C2  <0> d   1      -0.008  -0.278  -0.178  0.00  0.00     0.050 A 
ATOM     29  C1  <0> d   1      -0.238   1.208  -0.273  0.00  0.00     0.076 C 
ATOM     30  O1  <0> d   1       1.186  -0.873  -0.046  0.00  0.00    -0.316 OA
ENDBRANCH   1  25
TORSDOF 6
