REMARK  5 active torsions:
REMARK  status: ('A' for Active; 'I' for Inactive)
REMARK    1  A    between atoms: O1_2  and  C2_3 
REMARK    2  A    between atoms: C5_6  and  C9_11 
REMARK    3  A    between atoms: C6_7  and  O2_9 
REMARK    4  A    between atoms: C16_19  and  C18_22 
REMARK    5  A    between atoms: C18_22  and  N1_23 
ROOT
ATOM      1  C9  <0> d   1      -1.105   7.087   1.829  0.00  0.00     0.055 C 
ATOM      2  C10 <0> d   1      -0.495   7.920   0.944  0.00  0.00     0.128 A 
ATOM      3  C11 <0> d   1      -0.428   9.383   1.034  0.00  0.00     0.218 A 
ATOM      4  O3  <0> d   1      -0.897  10.099   1.903  0.00  0.00    -0.284 OA
ATOM      5  C12 <0> d   1       0.334   9.794  -0.159  0.00  0.00     0.051 A 
ATOM      6  C13 <0> d   1       0.738  11.034  -0.653  0.00  0.00     0.021 A 
ATOM      7  C14 <0> d   1       1.452  11.104  -1.815  0.00  0.00     0.041 A 
ATOM      8  C15 <0> d   1       1.777   9.941  -2.508  0.00  0.00     0.118 A 
ATOM      9  C16 <0> d   1       1.382   8.703  -2.030  0.00  0.00     0.041 A 
ATOM     10  C17 <0> d   1       0.655   8.614  -0.849  0.00  0.00     0.101 A 
ATOM     11  O4  <0> d   1       0.165   7.548  -0.179  0.00  0.00    -0.305 OA
ATOM     12  O6  <0> d   1       2.488  10.021  -3.662  0.00  0.00    -0.191 OA
ENDROOT
BRANCH   1  13
ATOM     13  C5  <0> d   1      -0.952   5.636   1.695  0.00  0.00     0.000 A 
ATOM     14  C4  <0> d   1      -0.493   5.084   0.491  0.00  0.00     0.017 A 
ATOM     15  C3  <0> d   1      -0.347   3.732   0.371  0.00  0.00     0.038 A 
ATOM     16  C2  <0> d   1      -0.661   2.892   1.436  0.00  0.00     0.070 A 
ATOM     17  C7  <0> d   1      -1.116   3.421   2.635  0.00  0.00     0.074 A 
ATOM     18  C6  <0> d   1      -1.264   4.790   2.775  0.00  0.00     0.081 A 
BRANCH  16  19
ATOM     19  O1  <0> d   1      -0.516   1.549   1.302  0.00  0.00    -0.356 OA
ATOM     20  C1  <0> d   1      -0.043   1.071   0.041  0.00  0.00     0.210 C 
ENDBRANCH  16  19
BRANCH  18  21
ATOM     21  O2  <0> d   1      -1.708   5.312   3.945  0.00  0.00    -0.355 OA
ATOM     22  C8  <0> d   1      -2.005   4.391   4.996  0.00  0.00     0.210 C 
ENDBRANCH  18  21
ENDBRANCH   1  13
BRANCH   9  23
ATOM     23  C18 <0> d   1       1.740   7.452  -2.790  0.00  0.00     0.317 C 
BRANCH  23  24
ATOM     24  N1  <0> d   1       0.677   7.145  -3.756  0.00  0.00     0.097 N 
ATOM     25  C22 <0> d   1       1.094   6.076  -4.676  0.00  0.00     0.299 C 
ATOM     26  C21 <0> d   1      -0.018   5.830  -5.700  0.00  0.00     0.198 C 
ATOM     27  O5  <0> d   1      -1.230   5.510  -5.012  0.00  0.00    -0.388 OA
ATOM     28  C20 <0> d   1      -1.665   6.529  -4.108  0.00  0.00     0.198 C 
ATOM     29  C19 <0> d   1      -0.571   6.783  -3.068  0.00  0.00     0.299 C 
ENDBRANCH  23  24
ENDBRANCH   9  23
TORSDOF 5
