REMARK  3 active torsions:
REMARK  status: ('A' for Active; 'I' for Inactive)
REMARK    1  A    between atoms: C5_5  and  C17_20 
REMARK    2  A    between atoms: C10_11  and  C11_12 
REMARK    3  A    between atoms: C17_20  and  N1_21 
ROOT
ATOM      1  C1  <0> d   1       3.016   0.391   0.598  0.00  0.00     0.049 C 
ATOM      2  C2  <0> d   1       2.471   1.788   0.744  0.00  0.00    -0.042 A 
ATOM      3  C3  <0> d   1       3.315   2.825   1.029  0.00  0.00     0.048 A 
ATOM      4  C4  <0> d   1       2.814   4.117   1.165  0.00  0.00     0.118 A 
ATOM      5  C5  <0> d   1       1.459   4.367   1.014  0.00  0.00     0.041 A 
ATOM      6  C6  <0> d   1       0.588   3.325   0.726  0.00  0.00     0.102 A 
ATOM      7  C7  <0> d   1       1.105   2.026   0.591  0.00  0.00     0.057 A 
ATOM      8  C8  <0> d   1      -0.043   1.151   0.290  0.00  0.00     0.219 A 
ATOM      9  O1  <0> d   1      -0.033  -0.053   0.099  0.00  0.00    -0.284 OA
ATOM     10  C9  <0> d   1      -1.201   2.058   0.265  0.00  0.00     0.128 A 
ATOM     11  C10 <0> d   1      -2.489   1.707   0.021  0.00  0.00     0.054 C 
ATOM     12  O2  <0> d   1      -0.749   3.305   0.535  0.00  0.00    -0.305 OA
ATOM     13  O4  <0> d   1       3.660   5.140   1.448  0.00  0.00    -0.191 OA
ENDROOT
BRANCH  11  14
ATOM     14  C11 <0> d   1      -3.558   2.707   0.142  0.00  0.00    -0.012 A 
ATOM     15  C16 <0> d   1      -4.894   2.301   0.245  0.00  0.00     0.044 A 
ATOM     16  C15 <0> d   1      -5.892   3.248   0.362  0.00  0.00     0.024 A 
ATOM     17 Cl1  <0> d   1      -5.294   0.612   0.231  0.00  0.00    -0.083 Cl
ATOM     18  C14 <0> d   1      -5.575   4.594   0.368  0.00  0.00     0.002 A 
ATOM     19  C13 <0> d   1      -4.257   5.004   0.262  0.00  0.00     0.001 A 
ATOM     20  C12 <0> d   1      -3.248   4.072   0.149  0.00  0.00     0.013 A 
ENDBRANCH  11  14
BRANCH   5  21
ATOM     21  C17 <0> d   1       0.931   5.771   1.164  0.00  0.00     0.317 C 
BRANCH  21  22
ATOM     22  N1  <0> d   1       0.569   6.011   2.567  0.00  0.00     0.097 N 
ATOM     23  C21 <0> d   1       0.276   7.432   2.800  0.00  0.00     0.299 C 
ATOM     24  C20 <0> d   1      -0.037   7.647   4.283  0.00  0.00     0.198 C 
ATOM     25  O3  <0> d   1      -1.125   6.800   4.663  0.00  0.00    -0.388 OA
ATOM     26  C19 <0> d   1      -0.873   5.408   4.450  0.00  0.00     0.198 C 
ATOM     27  C18 <0> d   1      -0.569   5.171   2.969  0.00  0.00     0.299 C 
ENDBRANCH  21  22
ENDBRANCH   5  21
TORSDOF 3
