REMARK  4 active torsions:
REMARK  status: ('A' for Active; 'I' for Inactive)
REMARK    1  A    between atoms: N2_5  and  C6_8 
REMARK    2  A    between atoms: C6_8  and  C7_9 
REMARK    3  A    between atoms: C8_10  and  O3_29 
REMARK    4  A    between atoms: C14_17  and  C16_20 
ROOT
ATOM      1  C7  <0> d   1       2.479   3.702  -0.001  0.00  0.00     0.038 A 
ATOM      2  C8  <0> d   1       2.554   5.085   0.007  0.00  0.00     0.076 A 
ATOM      3  C9  <0> d   1       1.396   5.858   0.022  0.00  0.00     0.038 A 
ATOM      4  C10 <0> d   1       0.168   5.260   0.030  0.00  0.00     0.021 A 
ATOM      5  C11 <0> d   1       0.075   3.868   0.022  0.00  0.00     0.050 A 
ATOM      6  C12 <0> d   1       1.238   3.078   0.007  0.00  0.00     0.100 A 
ATOM      7  O1  <0> d   1       1.148   1.733   0.000  0.00  0.00    -0.320 OA
ATOM      8  C13 <0> d   1      -0.013   1.076   0.008  0.00  0.00     0.161 A 
ATOM      9  C14 <0> d   1      -1.216   1.714   0.017  0.00  0.00     0.073 A 
ATOM     10  C15 <0> d   1      -1.233   3.189   0.030  0.00  0.00     0.199 A 
ATOM     11  O2  <0> d   1      -2.278   3.815   0.044  0.00  0.00    -0.286 OA
ENDROOT
BRANCH   9  12
ATOM     12  C16 <0> d   1      -2.476   0.946   0.019  0.00  0.00     0.115 A 
ATOM     13  S1  <0> d   1      -4.158   1.551   0.038  0.00  0.00    -0.067 SA
ATOM     14  C22 <0> d   1      -4.964  -0.032   0.025  0.00  0.00     0.035 A 
ATOM     15  C17 <0> d   1      -3.869  -0.928   0.014  0.00  0.00     0.075 A 
ATOM     16  C21 <0> d   1      -6.269  -0.459   0.029  0.00  0.00     0.021 A 
ATOM     17  N3  <0> d   1      -2.647  -0.359   0.012  0.00  0.00    -0.239 NA
ATOM     18  C18 <0> d   1      -4.191  -2.306   0.008  0.00  0.00     0.033 A 
ATOM     19  C19 <0> d   1      -5.487  -2.719   0.013  0.00  0.00     0.002 A 
ATOM     20  C20 <0> d   1      -6.540  -1.815   0.023  0.00  0.00     0.002 A 
ENDBRANCH   9  12
BRANCH   1  21
ATOM     21  C6  <0> d   1       3.739   2.876  -0.017  0.00  0.00     0.317 C 
BRANCH  21  22
ATOM     22  N2  <0> d   1       4.136   2.615  -1.407  0.00  0.00     0.096 N 
ATOM     23  C3  <0> d   1       5.479   2.021  -1.469  0.00  0.00     0.303 C 
ATOM     24  C2  <0> d   1       5.886   1.839  -2.933  0.00  0.00     0.302 C 
ATOM     25  N1  <0> d   1       4.903   0.982  -3.610  0.00  0.00     0.087 N 
ATOM     26  C1  <0> d   1       5.300   0.721  -5.000  0.00  0.00     0.310 C 
ATOM     27  C5  <0> d   1       3.560   1.576  -3.548  0.00  0.00     0.302 C 
ATOM     28  C4  <0> d   1       3.153   1.759  -2.084  0.00  0.00     0.303 C 
ENDBRANCH  21  22
ENDBRANCH   1  21
BRANCH   2  29
ATOM     29  O3  <0> d   1       3.768   5.692  -0.001  0.00  0.00    -0.360 OA
ATOM     30  H21 <0> d   1       3.834   6.790   0.006  0.00  0.00     0.217 HD
ENDBRANCH   2  29
TORSDOF 4
