REMARK  7 active torsions:
REMARK  status: ('A' for Active; 'I' for Inactive)
REMARK    1  A    between atoms: C2_2  and  N1_3 
REMARK    2  A    between atoms: N2_6  and  C7_9 
REMARK    3  A    between atoms: C7_9  and  C8_10 
REMARK    4  A    between atoms: C15_18  and  C16_19 
REMARK    5  A    between atoms: C19_22  and  O4_29 
REMARK    6  A    between atoms: C20_23  and  O3_27 
REMARK    7  A    between atoms: C21_24  and  O2_25 
ROOT
ATOM      1  C8  <0> d   1       0.058   0.136  -1.021  0.00  0.00     0.041 A 
ATOM      2  C9  <0> d   1       1.275  -0.503  -1.198  0.00  0.00     0.118 A 
ATOM      3  C10 <0> d   1       2.469   0.201  -1.071  0.00  0.00     0.041 A 
ATOM      4  C11 <0> d   1       2.451   1.534  -0.769  0.00  0.00     0.021 A 
ATOM      5  C12 <0> d   1       1.234   2.190  -0.588  0.00  0.00     0.051 A 
ATOM      6  C13 <0> d   1       0.022   1.490  -0.714  0.00  0.00     0.101 A 
ATOM      7  O1  <0> d   1      -1.013   2.331  -0.502  0.00  0.00    -0.305 OA
ATOM      8  C14 <0> d   1      -0.591   3.588  -0.223  0.00  0.00     0.128 A 
ATOM      9  C15 <0> d   1      -1.383   4.661   0.040  0.00  0.00     0.055 C 
ATOM     10  C25 <0> d   1       0.876   3.583  -0.264  0.00  0.00     0.218 A 
ATOM     11  O5  <0> d   1       1.631   4.521  -0.073  0.00  0.00    -0.284 OA
ATOM     12  O6  <0> d   1       1.303  -1.827  -1.497  0.00  0.00    -0.191 OA
ENDROOT
BRANCH   9  13
ATOM     13  C16 <0> d   1      -2.840   4.537  -0.057  0.00  0.00     0.003 A 
ATOM     14  C21 <0> d   1      -3.642   5.688  -0.144  0.00  0.00     0.114 A 
ATOM     15  C20 <0> d   1      -5.020   5.560  -0.241  0.00  0.00     0.136 A 
ATOM     16  C19 <0> d   1      -5.602   4.297  -0.241  0.00  0.00     0.104 A 
ATOM     17  C18 <0> d   1      -4.809   3.158  -0.149  0.00  0.00     0.040 A 
ATOM     18  C17 <0> d   1      -3.441   3.270  -0.059  0.00  0.00     0.017 A 
BRANCH  14  19
ATOM     19  O2  <0> d   1      -3.070   6.920  -0.139  0.00  0.00    -0.352 OA
ATOM     20  C22 <0> d   1      -2.710   7.473  -1.406  0.00  0.00     0.210 C 
ENDBRANCH  14  19
BRANCH  15  21
ATOM     21  O3  <0> d   1      -5.802   6.670  -0.330  0.00  0.00    -0.351 OA
ATOM     22  C23 <0> d   1      -6.262   7.240   0.897  0.00  0.00     0.210 C 
ENDBRANCH  15  21
BRANCH  16  23
ATOM     23  O4  <0> d   1      -6.952   4.175  -0.331  0.00  0.00    -0.353 OA
ATOM     24  C24 <0> d   1      -7.486   2.849  -0.326  0.00  0.00     0.210 C 
ENDBRANCH  16  23
ENDBRANCH   9  13
BRANCH   1  25
ATOM     25  C7  <0> d   1      -1.227  -0.639  -1.162  0.00  0.00     0.317 C 
BRANCH  25  26
ATOM     26  N2  <0> d   1      -1.680  -0.586  -2.558  0.00  0.00     0.096 N 
ATOM     27  C4  <0> d   1      -2.793  -1.518  -2.787  0.00  0.00     0.300 C 
ATOM     28  C3  <0> d   1      -3.182  -1.491  -4.267  0.00  0.00     0.265 C 
ATOM     29  N1  <0> d   1      -3.559  -0.122  -4.646  0.00  0.00    -0.068 N 
ATOM     30  C6  <0> d   1      -2.447   0.810  -4.417  0.00  0.00     0.265 C 
ATOM     31  H30 <0> d   1      -4.399   0.188  -4.007  0.00  0.00     0.280 HD
ATOM     32  C5  <0> d   1      -2.058   0.783  -2.937  0.00  0.00     0.300 C 
BRANCH  29  33
ATOM     33  C2  <0> d   1      -4.013  -0.069  -6.042  0.00  0.00     0.230 C 
ATOM     34  C1  <0> d   1      -4.628   1.303  -6.327  0.00  0.00     0.034 C 
ENDBRANCH  29  33
ENDBRANCH  25  26
ENDBRANCH   1  25
TORSDOF 7
