REMARK  8 active torsions:
REMARK  status: ('A' for Active; 'I' for Inactive)
REMARK    1  A    between atoms: C3_3  and  C23_30 
REMARK    2  A    between atoms: C4_4  and  C5_8 
REMARK    3  A    between atoms: C8_11  and  O2_15 
REMARK    4  A    between atoms: O2_15  and  C11_16 
REMARK    5  A    between atoms: C11_16  and  C12_17 
REMARK    6  A    between atoms: C12_17  and  N3_18 
REMARK    7  A    between atoms: N4_21  and  C17_24 
REMARK    8  A    between atoms: C26_33  and  O3_36 
ROOT
ATOM      1  C5  <0> d   1       0.257  -2.628   2.018  0.00  0.00     0.032 A 
ATOM      2  C6  <0> d   1      -0.067  -2.489   3.366  0.00  0.00     0.019 A 
ATOM      3  C7  <0> d   1      -0.150  -3.604   4.173  0.00  0.00     0.038 A 
ATOM      4  C8  <0> d   1       0.088  -4.867   3.647  0.00  0.00     0.071 A 
ATOM      5  C9  <0> d   1       0.411  -5.014   2.306  0.00  0.00     0.077 A 
ATOM      6  C10 <0> d   1       0.491  -3.900   1.487  0.00  0.00     0.122 A 
ATOM      7  O1  <0> d   1       0.802  -4.043   0.172  0.00  0.00    -0.191 OA
ENDROOT
BRANCH   4   8
ATOM      8  O2  <0> d   1       0.005  -5.961   4.447  0.00  0.00    -0.349 OA
BRANCH   8   9
ATOM      9  C11 <0> d   1       0.262  -7.229   3.841  0.00  0.00     0.203 C 
BRANCH   9  10
ATOM     10  C12 <0> d   1       0.122  -8.334   4.890  0.00  0.00     0.261 C 
BRANCH  10  11
ATOM     11  N3  <0> d   1      -1.266  -8.381   5.370  0.00  0.00    -0.066 N 
ATOM     12  C16 <0> d   1      -2.147  -8.797   4.272  0.00  0.00     0.254 C 
ATOM     13  C15 <0> d   1      -3.606  -8.736   4.739  0.00  0.00     0.150 C 
ATOM     14  N4  <0> d   1      -3.738  -9.541   5.963  0.00  0.00    -0.378 N 
ATOM     15  C14 <0> d   1      -2.785  -9.300   7.057  0.00  0.00     0.150 C 
ATOM     16  C13 <0> d   1      -1.365  -9.335   6.481  0.00  0.00     0.254 C 
ATOM     17  H32 <0> d   1      -1.540  -7.465   5.691  0.00  0.00     0.280 HD
BRANCH  14  18
ATOM     18  C17 <0> d   1      -4.741 -10.506   6.083  0.00  0.00     0.030 A 
ATOM     19  C22 <0> d   1      -5.554 -10.803   4.997  0.00  0.00     0.029 A 
ATOM     20  C21 <0> d   1      -6.541 -11.762   5.117  0.00  0.00     0.002 A 
ATOM     21  C20 <0> d   1      -6.727 -12.418   6.321  0.00  0.00     0.000 A 
ATOM     22  C19 <0> d   1      -5.923 -12.120   7.405  0.00  0.00     0.002 A 
ATOM     23  C18 <0> d   1      -4.930 -11.167   7.290  0.00  0.00     0.029 A 
ENDBRANCH  14  18
ENDBRANCH  10  11
ENDBRANCH   9  10
ENDBRANCH   8   9
ENDBRANCH   4   8
BRANCH   1  24
ATOM     24  C4  <0> d   1       0.347  -1.431   1.147  0.00  0.00     0.103 A 
ATOM     25  C3  <0> d   1       1.034  -0.229   1.449  0.00  0.00     0.029 A 
ATOM     26  C2  <0> d   1       0.870   0.614   0.391  0.00  0.00     0.037 A 
ATOM     27  C1  <0> d   1       1.429   2.008   0.271  0.00  0.00     0.070 C 
ATOM     28  N2  <0> d   1       0.114  -0.021  -0.529  0.00  0.00    -0.281 N 
ATOM     29  N1  <0> d   1      -0.198  -1.296  -0.043  0.00  0.00    -0.173 NA
ATOM     30  H1  <0> d   1      -0.164   0.344  -1.384  0.00  0.00     0.189 HD
BRANCH  25  31
ATOM     31  C23 <0> d   1       1.793   0.060   2.691  0.00  0.00    -0.021 A 
ATOM     32  C28 <0> d   1       1.346   1.044   3.570  0.00  0.00     0.015 A 
ATOM     33  C27 <0> d   1       2.050   1.306   4.727  0.00  0.00     0.037 A 
ATOM     34  C26 <0> d   1       3.211   0.599   5.009  0.00  0.00     0.068 A 
ATOM     35  C25 <0> d   1       3.663  -0.378   4.132  0.00  0.00     0.037 A 
ATOM     36  C24 <0> d   1       2.959  -0.648   2.977  0.00  0.00     0.015 A 
BRANCH  34  37
ATOM     37  O3  <0> d   1       3.906   0.863   6.147  0.00  0.00    -0.356 OA
ATOM     38  C29 <0> d   1       3.385   1.880   7.004  0.00  0.00     0.210 C 
ENDBRANCH  34  37
ENDBRANCH  25  31
ENDBRANCH   1  24
TORSDOF 8
