REMARK  4 active torsions:
REMARK  status: ('A' for Active; 'I' for Inactive)
REMARK    1  A    between atoms: C8_9  and  C11_14 
REMARK    2  A    between atoms: C11_14  and  N1_15 
REMARK    3  A    between atoms: N2_18  and  C16_21 
REMARK    4  A    between atoms: C16_21  and  C17_22 
ROOT
ATOM      1  N1  <0> d   1       1.461  -5.175   1.724  0.00  0.00     0.096 N 
ATOM      2  C12 <0> d   1       2.255  -5.994   0.797  0.00  0.00     0.300 C 
ATOM      3  C13 <0> d   1       3.701  -6.063   1.292  0.00  0.00     0.265 C 
ATOM      4  N2  <0> d   1       3.729  -6.651   2.638  0.00  0.00    -0.064 N 
ATOM      5  C14 <0> d   1       2.953  -5.810   3.558  0.00  0.00     0.265 C 
ATOM      6  C15 <0> d   1       1.501  -5.738   3.082  0.00  0.00     0.300 C 
ATOM      7  H24 <0> d   1       3.329  -7.577   2.609  0.00  0.00     0.280 HD
ENDROOT
BRANCH   1   8
ATOM      8  C11 <0> d   1       0.077  -5.037   1.252  0.00  0.00     0.312 C 
BRANCH   8   9
ATOM      9  C8  <0> d   1       0.059  -4.239  -0.026  0.00  0.00    -0.011 A 
ATOM     10  C5  <0> d   1       0.040  -2.773   0.001  0.00  0.00     0.008 A 
ATOM     11  C4  <0> d   1       0.024  -2.068  -1.215  0.00  0.00     0.090 A 
ATOM     12  C6  <0> d   1       0.035  -2.075   1.213  0.00  0.00     0.039 A 
ATOM     13  C3  <0> d   1       0.006  -0.680  -1.200  0.00  0.00     0.046 A 
ATOM     14  O2  <0> d   1       0.028  -2.745  -2.384  0.00  0.00    -0.275 OA
ATOM     15  C2  <0> d   1       0.002  -0.004   0.002  0.00  0.00    -0.038 A 
ATOM     16  C1  <0> d   1      -0.018   1.503   0.010  0.00  0.00     0.050 C 
ATOM     17  C7  <0> d   1       0.023  -0.698   1.204  0.00  0.00     0.041 A 
ATOM     18 Cl1  <0> d   1       0.025   0.175   2.705  0.00  0.00    -0.084 Cl
ATOM     19  C10 <0> d   1       0.046  -4.087  -2.417  0.00  0.00     0.288 A 
ATOM     20  C9  <0> d   1       0.062  -4.857  -1.234  0.00  0.00     0.092 A 
ATOM     21  O1  <0> d   1       0.048  -4.654  -3.494  0.00  0.00    -0.260 OA
ENDBRANCH   8   9
ENDBRANCH   1   8
BRANCH   4  22
ATOM     22  C16 <0> d   1       5.119  -6.735   3.106  0.00  0.00     0.273 C 
BRANCH  22  23
ATOM     23  C17 <0> d   1       5.161  -7.448   4.433  0.00  0.00    -0.033 A 
ATOM     24  C22 <0> d   1       5.308  -8.822   4.474  0.00  0.00     0.009 A 
ATOM     25  C21 <0> d   1       5.350  -9.476   5.691  0.00  0.00     0.001 A 
ATOM     26  C20 <0> d   1       5.236  -8.758   6.866  0.00  0.00     0.000 A 
ATOM     27  C19 <0> d   1       5.084  -7.385   6.825  0.00  0.00     0.001 A 
ATOM     28  C18 <0> d   1       5.046  -6.730   5.608  0.00  0.00     0.009 A 
ENDBRANCH  22  23
ENDBRANCH   4  22
TORSDOF 4
