REMARK  5 active torsions:
REMARK  status: ('A' for Active; 'I' for Inactive)
REMARK    1  A    between atoms: N1_6  and  C7_8 
REMARK    2  A    between atoms: C7_8  and  C8_9 
REMARK    3  A    between atoms: C9_10  and  O4_32 
REMARK    4  A    between atoms: C15_17  and  C16_18 
REMARK    5  A    between atoms: C21_24  and  O2_27 
ROOT
ATOM      1  C8  <0> d   1       6.770  -5.196  -0.092  0.00  0.00     0.036 A 
ATOM      2  C9  <0> d   1       8.045  -5.737  -0.108  0.00  0.00     0.076 A 
ATOM      3  C10 <0> d   1       9.165  -4.909  -0.114  0.00  0.00     0.038 A 
ATOM      4  C11 <0> d   1       9.016  -3.551  -0.105  0.00  0.00     0.021 A 
ATOM      5  C12 <0> d   1       7.739  -2.992  -0.090  0.00  0.00     0.051 A 
ATOM      6  C13 <0> d   1       6.602  -3.818  -0.083  0.00  0.00     0.101 A 
ATOM      7  O1  <0> d   1       5.499  -3.040  -0.068  0.00  0.00    -0.305 OA
ATOM      8  C14 <0> d   1       5.821  -1.724  -0.064  0.00  0.00     0.128 A 
ATOM      9  C15 <0> d   1       4.937  -0.688  -0.050  0.00  0.00     0.055 C 
ATOM     10  C26 <0> d   1       7.236  -1.607  -0.083  0.00  0.00     0.218 A 
ATOM     11  O3  <0> d   1       7.895  -0.580  -0.090  0.00  0.00    -0.284 OA
ENDROOT
BRANCH   9  12
ATOM     12  C16 <0> d   1       3.500  -0.954  -0.037  0.00  0.00    -0.005 A 
ATOM     13  C19 <0> d   1       2.415   0.046  -0.021  0.00  0.00     0.005 A 
ATOM     14  C18 <0> d   1       1.216  -0.684  -0.013  0.00  0.00     0.045 A 
ATOM     15  C20 <0> d   1       2.387   1.438  -0.012  0.00  0.00     0.051 A 
ATOM     16  N2  <0> d   1       1.542  -2.026  -0.024  0.00  0.00    -0.360 N 
ATOM     17  C23 <0> d   1       0.002  -0.004   0.002  0.00  0.00     0.033 A 
ATOM     18  C17 <0> d   1       2.888  -2.189  -0.037  0.00  0.00     0.103 A 
ATOM     19  C25 <0> d   1       0.569  -3.122  -0.020  0.00  0.00     0.156 C 
ATOM     20  C22 <0> d   1      -0.017   1.373   0.010  0.00  0.00     0.039 A 
ATOM     21  C21 <0> d   1       1.171   2.098   0.002  0.00  0.00     0.069 A 
BRANCH  21  22
ATOM     22  O2  <0> d   1       1.137   3.457   0.010  0.00  0.00    -0.356 OA
ATOM     23  C24 <0> d   1      -0.152   4.073   0.025  0.00  0.00     0.210 C 
ENDBRANCH  21  22
ENDBRANCH   9  12
BRANCH   1  24
ATOM     24  C7  <0> d   1       5.566  -6.103  -0.085  0.00  0.00     0.279 C 
BRANCH  24  25
ATOM     25  N1  <0> d   1       5.162  -6.390  -1.468  0.00  0.00    -0.066 N 
ATOM     26  C5  <0> d   1       4.148  -7.451  -1.510  0.00  0.00     0.239 C 
ATOM     27  C4  <0> d   1       3.858  -7.824  -2.966  0.00  0.00     0.008 C 
ATOM     28  C3  <0> d   1       3.359  -6.586  -3.716  0.00  0.00     0.011 C 
ATOM     29  C27 <0> d   1       2.786  -8.915  -3.010  0.00  0.00     0.011 C 
ATOM     30  C2  <0> d   1       4.413  -5.479  -3.615  0.00  0.00     0.008 C 
ATOM     31  C1  <0> d   1       5.706  -5.942  -4.290  0.00  0.00     0.011 C 
ATOM     32  C6  <0> d   1       4.686  -5.174  -2.141  0.00  0.00     0.239 C 
ATOM     33  H30 <0> d   1       6.047  -6.750  -2.013  0.00  0.00     0.280 HD
ENDBRANCH  24  25
ENDBRANCH   1  24
BRANCH   2  34
ATOM     34  O4  <0> d   1       8.205  -7.085  -0.117  0.00  0.00    -0.360 OA
ATOM     35  H31 <0> d   1       9.216  -7.519  -0.130  0.00  0.00     0.217 HD
ENDBRANCH   2  34
TORSDOF 5
