REMARK  3 active torsions:
REMARK  status: ('A' for Active; 'I' for Inactive)
REMARK    1  A    between atoms: C8_9  and  C11_14 
REMARK    2  A    between atoms: C11_14  and  N1_15 
REMARK    3  A    between atoms: N2_18  and  C16_21 
ROOT
ATOM      1  C11 <0> d   1       0.030  -5.375   1.361  0.00  0.00     0.274 C 
ENDROOT
BRANCH   1   2
ATOM      2  C8  <0> d   1      -0.163  -4.478   0.165  0.00  0.00    -0.014 A 
ATOM      3  C5  <0> d   1      -0.402  -3.041   0.332  0.00  0.00     0.008 A 
ATOM      4  C4  <0> d   1      -0.577  -2.242  -0.812  0.00  0.00     0.090 A 
ATOM      5  C6  <0> d   1      -0.459  -2.463   1.603  0.00  0.00     0.039 A 
ATOM      6  C3  <0> d   1      -0.804  -0.880  -0.664  0.00  0.00     0.046 A 
ATOM      7  O2  <0> d   1      -0.522  -2.803  -2.039  0.00  0.00    -0.275 OA
ATOM      8  C2  <0> d   1      -0.857  -0.322   0.596  0.00  0.00    -0.038 A 
ATOM      9  C1  <0> d   1      -1.103   1.157   0.747  0.00  0.00     0.050 C 
ATOM     10  C7  <0> d   1      -0.679  -1.109   1.726  0.00  0.00     0.041 A 
ATOM     11 Cl1  <0> d   1      -0.743  -0.383   3.302  0.00  0.00    -0.084 Cl
ATOM     12  C10 <0> d   1      -0.303  -4.117  -2.199  0.00  0.00     0.288 A 
ATOM     13  C9  <0> d   1      -0.120  -4.979  -1.095  0.00  0.00     0.092 A 
ATOM     14  O1  <0> d   1      -0.263  -4.579  -3.325  0.00  0.00    -0.260 OA
ENDBRANCH   1   2
BRANCH   1  15
ATOM     15  N1  <0> d   1       1.438  -5.339   1.777  0.00  0.00    -0.064 N 
ATOM     16  C15 <0> d   1       1.649  -6.303   2.865  0.00  0.00     0.255 C 
ATOM     17  C14 <0> d   1       3.139  -6.350   3.222  0.00  0.00     0.152 C 
ATOM     18  N2  <0> d   1       3.589  -4.983   3.526  0.00  0.00    -0.363 N 
ATOM     19  C13 <0> d   1       3.273  -3.919   2.561  0.00  0.00     0.152 C 
ATOM     20  C12 <0> d   1       1.778  -3.986   2.235  0.00  0.00     0.255 C 
ATOM     21  H21 <0> d   1       2.025  -5.584   0.994  0.00  0.00     0.280 HD
BRANCH  18  22
ATOM     22  C16 <0> d   1       4.292  -4.705   4.692  0.00  0.00     0.125 A 
ATOM     23  N3  <0> d   1       4.380  -5.624   5.641  0.00  0.00    -0.244 NA
ATOM     24  C20 <0> d   1       5.042  -5.402   6.760  0.00  0.00     0.119 A 
ATOM     25  C19 <0> d   1       5.663  -4.190   6.987  0.00  0.00     0.019 A 
ATOM     26  C18 <0> d   1       5.590  -3.197   6.020  0.00  0.00     0.005 A 
ATOM     27  C17 <0> d   1       4.893  -3.460   4.854  0.00  0.00     0.050 A 
ENDBRANCH  18  22
ENDBRANCH   1  15
TORSDOF 3
