REMARK  5 active torsions:
REMARK  status: ('A' for Active; 'I' for Inactive)
REMARK    1  A    between atoms: C7_7  and  O1_8 
REMARK    2  A    between atoms: C8_9  and  C11_14 
REMARK    3  A    between atoms: C11_14  and  N1_15 
REMARK    4  A    between atoms: N2_18  and  C16_21 
REMARK    5  A    between atoms: C16_21  and  C17_22 
ROOT
ATOM      1  N1  <0> d   1       8.052  -2.652   0.030  0.00  0.00     0.096 N 
ATOM      2  C12 <0> d   1       8.359  -1.292   0.496  0.00  0.00     0.300 C 
ATOM      3  C13 <0> d   1       7.340  -0.879   1.560  0.00  0.00     0.265 C 
ATOM      4  N2  <0> d   1       5.987  -0.944   0.991  0.00  0.00    -0.064 N 
ATOM      5  C14 <0> d   1       5.680  -2.304   0.525  0.00  0.00     0.265 C 
ATOM      6  C15 <0> d   1       6.699  -2.717  -0.540  0.00  0.00     0.300 C 
ATOM      7  H25 <0> d   1       5.951  -0.271   0.122  0.00  0.00     0.280 HD
ENDROOT
BRANCH   1   8
ATOM      8  C11 <0> d   1       9.054  -3.114  -0.940  0.00  0.00     0.312 C 
BRANCH   8   9
ATOM      9  C8  <0> d   1       8.654  -4.468  -1.469  0.00  0.00    -0.011 A 
ATOM     10  C5  <0> d   1       8.787  -5.670  -0.640  0.00  0.00     0.009 A 
ATOM     11  C4  <0> d   1       8.400  -6.912  -1.173  0.00  0.00     0.091 A 
ATOM     12  C6  <0> d   1       9.288  -5.593   0.663  0.00  0.00     0.052 A 
ATOM     13  C3  <0> d   1       8.522  -8.057  -0.398  0.00  0.00     0.047 A 
ATOM     14  O3  <0> d   1       7.916  -6.981  -2.433  0.00  0.00    -0.275 OA
ATOM     15  C2  <0> d   1       9.017  -7.972   0.886  0.00  0.00    -0.026 A 
ATOM     16  C1  <0> d   1       9.145  -9.220   1.721  0.00  0.00     0.051 C 
ATOM     17  C7  <0> d   1       9.400  -6.745   1.418  0.00  0.00     0.072 A 
ATOM     18  C10 <0> d   1       7.792  -5.885  -3.197  0.00  0.00     0.288 A 
ATOM     19  C9  <0> d   1       8.155  -4.606  -2.724  0.00  0.00     0.092 A 
ATOM     20  O2  <0> d   1       7.351  -5.997  -4.327  0.00  0.00    -0.260 OA
BRANCH  17  21
ATOM     21  O1  <0> d   1       9.887  -6.678   2.686  0.00  0.00    -0.360 OA
ATOM     22  H6  <0> d   1      10.190  -5.708   3.108  0.00  0.00     0.217 HD
ENDBRANCH  17  21
ENDBRANCH   8   9
ENDBRANCH   1   8
BRANCH   4  23
ATOM     23  C16 <0> d   1       4.985  -0.481   1.961  0.00  0.00     0.273 C 
BRANCH  23  24
ATOM     24  C17 <0> d   1       3.653  -0.329   1.273  0.00  0.00    -0.030 A 
ATOM     25  C22 <0> d   1       3.311   0.878   0.692  0.00  0.00     0.048 A 
ATOM     26  C21 <0> d   1       2.087   1.021   0.059  0.00  0.00     0.105 A 
ATOM     27  C20 <0> d   1       1.204  -0.054   0.009  0.00  0.00     0.105 A 
ATOM     28  O4  <0> d   1       1.518   2.084  -0.581  0.00  0.00    -0.323 OA
ATOM     29  C19 <0> d   1       1.553  -1.261   0.594  0.00  0.00     0.040 A 
ATOM     30  O5  <0> d   1       0.081   0.335  -0.662  0.00  0.00    -0.323 OA
ATOM     31  C18 <0> d   1       2.776  -1.396   1.224  0.00  0.00     0.012 A 
ATOM     32  C23 <0> d   1       0.114   1.774  -0.666  0.00  0.00     0.352 C 
ENDBRANCH  23  24
ENDBRANCH   4  23
TORSDOF 5
