REMARK  3 active torsions:
REMARK  status: ('A' for Active; 'I' for Inactive)
REMARK    1  A    between atoms: C3_3  and  C18_22 
REMARK    2  A    between atoms: C9_10  and  C11_13 
REMARK    3  A    between atoms: C11_13  and  N1_14 
ROOT
ATOM      1  C1  <0> d   1       5.085  -2.570  -0.058  0.00  0.00     0.078 C 
ATOM      2  C2  <0> d   1       3.712  -1.948  -0.042  0.00  0.00     0.067 A 
ATOM      3  C3  <0> d   1       2.623  -2.764  -0.036  0.00  0.00     0.080 A 
ATOM      4  C4  <0> d   1       1.281  -2.153  -0.021  0.00  0.00     0.200 A 
ATOM      5  O1  <0> d   1       0.269  -2.833  -0.015  0.00  0.00    -0.286 OA
ATOM      6  C5  <0> d   1       1.223  -0.680  -0.013  0.00  0.00     0.050 A 
ATOM      7  C6  <0> d   1       0.002  -0.004   0.002  0.00  0.00     0.021 A 
ATOM      8  C7  <0> d   1      -0.016   1.361   0.009  0.00  0.00     0.041 A 
ATOM      9  C8  <0> d   1       1.177   2.081   0.002  0.00  0.00     0.118 A 
ATOM     10  C9  <0> d   1       2.396   1.424  -0.014  0.00  0.00     0.039 A 
ATOM     11  C10 <0> d   1       2.432   0.036  -0.021  0.00  0.00     0.100 A 
ATOM     12  O2  <0> d   1       3.611  -0.618  -0.035  0.00  0.00    -0.313 OA
ATOM     13  O3  <0> d   1       1.144   3.438   0.010  0.00  0.00    -0.191 OA
ENDROOT
BRANCH   3  14
ATOM     14  C18 <0> d   1       2.781  -4.232  -0.046  0.00  0.00     0.115 A 
ATOM     15  S1  <0> d   1       1.518  -5.497  -0.041  0.00  0.00    -0.067 SA
ATOM     16  C24 <0> d   1       2.608  -6.900  -0.059  0.00  0.00     0.035 A 
ATOM     17  C19 <0> d   1       3.885  -6.290  -0.067  0.00  0.00     0.075 A 
ATOM     18  C23 <0> d   1       2.440  -8.262  -0.065  0.00  0.00     0.021 A 
ATOM     19  N2  <0> d   1       3.889  -4.942  -0.066  0.00  0.00    -0.239 NA
ATOM     20  C20 <0> d   1       4.995  -7.168  -0.083  0.00  0.00     0.033 A 
ATOM     21  C21 <0> d   1       4.817  -8.516  -0.089  0.00  0.00     0.002 A 
ATOM     22  C22 <0> d   1       3.551  -9.085  -0.080  0.00  0.00     0.002 A 
ENDBRANCH   3  14
BRANCH  10  23
ATOM     23  C11 <0> d   1       3.679   2.214  -0.022  0.00  0.00     0.279 C 
BRANCH  23  24
ATOM     24  N1  <0> d   1       4.083   2.478  -1.410  0.00  0.00    -0.063 N 
ATOM     25  C16 <0> d   1       5.191   3.439  -1.462  0.00  0.00     0.184 C 
ATOM     26  C15 <0> d   1       5.680   3.579  -2.906  0.00  0.00     0.033 C 
ATOM     27  C17 <0> d   1       6.339   2.943  -0.581  0.00  0.00     0.040 C 
ATOM     28  C14 <0> d   1       4.522   4.057  -3.787  0.00  0.00     0.004 C 
ATOM     29  C13 <0> d   1       3.363   3.063  -3.677  0.00  0.00     0.028 C 
ATOM     30  C12 <0> d   1       2.942   2.938  -2.211  0.00  0.00     0.235 C 
ATOM     31  H24 <0> d   1       4.438   1.532  -1.845  0.00  0.00     0.280 HD
ENDBRANCH  23  24
ENDBRANCH  10  23
TORSDOF 3
