REMARK  3 active torsions:
REMARK  status: ('A' for Active; 'I' for Inactive)
REMARK    1  A    between atoms: C2_2  and  N1_3 
REMARK    2  A    between atoms: N2_6  and  C7_9 
REMARK    3  A    between atoms: C7_9  and  C8_10 
ROOT
ATOM      1  C8  <0> d   1       3.273  -3.976  -3.933  0.00  0.00    -0.013 A 
ATOM      2  C9  <0> d   1       2.647  -4.716  -2.983  0.00  0.00     0.092 A 
ATOM      3  C10 <0> d   1       2.724  -6.125  -3.029  0.00  0.00     0.288 A 
ATOM      4  O1  <0> d   1       2.158  -6.778  -2.170  0.00  0.00    -0.260 OA
ATOM      5  O2  <0> d   1       3.404  -6.763  -3.994  0.00  0.00    -0.275 OA
ATOM      6  C11 <0> d   1       4.048  -6.086  -4.968  0.00  0.00     0.091 A 
ATOM      7  C12 <0> d   1       4.009  -4.681  -4.987  0.00  0.00     0.012 A 
ATOM      8  C13 <0> d   1       4.671  -3.978  -5.997  0.00  0.00    -0.048 A 
ATOM      9  C14 <0> d   1       5.354  -4.669  -6.973  0.00  0.00     0.014 A 
ATOM     10  C15 <0> d   1       5.387  -6.056  -6.955  0.00  0.00    -0.059 A 
ATOM     11  C16 <0> d   1       4.747  -6.763  -5.959  0.00  0.00     0.045 A 
ATOM     12  C17 <0> d   1       6.139  -6.797  -8.031  0.00  0.00     0.048 C 
ATOM     13  C18 <0> d   1       4.637  -2.471  -6.020  0.00  0.00     0.049 C 
ENDROOT
BRANCH   1  14
ATOM     14  C7  <0> d   1       3.207  -2.471  -3.909  0.00  0.00     0.274 C 
BRANCH  14  15
ATOM     15  N2  <0> d   1       2.433  -2.033  -2.739  0.00  0.00    -0.064 N 
ATOM     16  C4  <0> d   1       2.566  -0.579  -2.581  0.00  0.00     0.265 C 
ATOM     17  C3  <0> d   1       1.776  -0.125  -1.351  0.00  0.00     0.300 C 
ATOM     18  N1  <0> d   1       0.362  -0.489  -1.520  0.00  0.00     0.091 N 
ATOM     19  C6  <0> d   1       0.215  -1.940  -1.705  0.00  0.00     0.300 C 
ATOM     20  C5  <0> d   1       1.019  -2.379  -2.931  0.00  0.00     0.265 C 
ATOM     21  H25 <0> d   1       2.783  -2.495  -1.913  0.00  0.00     0.280 HD
BRANCH  18  22
ATOM     22  C2  <0> d   1      -0.442  -0.020  -0.384  0.00  0.00     0.268 C 
ATOM     23  C1  <0> d   1      -0.465   1.510  -0.373  0.00  0.00     0.037 C 
ENDBRANCH  18  22
ENDBRANCH  14  15
ENDBRANCH   1  14
TORSDOF 3
