REMARK  2 active torsions:
REMARK  status: ('A' for Active; 'I' for Inactive)
REMARK    1  A    between atoms: N2_5  and  C6_8 
REMARK    2  A    between atoms: C6_8  and  C7_9 
ROOT
ATOM      1  C7  <0> d   1       2.188  -4.533   1.006  0.00  0.00    -0.011 A 
ATOM      2  C8  <0> d   1       1.715  -4.879   2.229  0.00  0.00     0.092 A 
ATOM      3  C9  <0> d   1       2.608  -5.341   3.221  0.00  0.00     0.288 A 
ATOM      4  O1  <0> d   1       2.171  -5.650   4.315  0.00  0.00    -0.260 OA
ATOM      5  O2  <0> d   1       3.925  -5.450   2.988  0.00  0.00    -0.275 OA
ATOM      6  C10 <0> d   1       4.459  -5.122   1.792  0.00  0.00     0.090 A 
ATOM      7  C11 <0> d   1       3.627  -4.660   0.757  0.00  0.00     0.008 A 
ATOM      8  C12 <0> d   1       4.177  -4.324  -0.483  0.00  0.00     0.038 A 
ATOM      9  C13 <0> d   1       5.534  -4.454  -0.684  0.00  0.00     0.035 A 
ATOM     10  C14 <0> d   1       6.352  -4.916   0.337  0.00  0.00     0.026 A 
ATOM     11  C15 <0> d   1       5.825  -5.240   1.569  0.00  0.00     0.040 A 
ATOM     12 Cl1  <0> d   1       6.223  -4.038  -2.223  0.00  0.00    -0.084 Cl
ENDROOT
BRANCH   1  13
ATOM     13  C6  <0> d   1       1.257  -4.037  -0.071  0.00  0.00     0.312 C 
BRANCH  13  14
ATOM     14  N2  <0> d   1       1.237  -2.568  -0.063  0.00  0.00     0.096 N 
ATOM     15  C3  <0> d   1       0.533  -2.045  -1.242  0.00  0.00     0.303 C 
ATOM     16  C2  <0> d   1       0.603  -0.516  -1.238  0.00  0.00     0.302 C 
ATOM     17  N1  <0> d   1       0.002  -0.004   0.002  0.00  0.00     0.087 N 
ATOM     18  C1  <0> d   1      -0.018   1.465   0.010  0.00  0.00     0.310 C 
ATOM     19  C5  <0> d   1       0.706  -0.528   1.181  0.00  0.00     0.302 C 
ATOM     20  C4  <0> d   1       0.636  -2.057   1.176  0.00  0.00     0.303 C 
ENDBRANCH  13  14
ENDBRANCH   1  13
TORSDOF 2
