REMARK  5 active torsions:
REMARK  status: ('A' for Active; 'I' for Inactive)
REMARK    1  A    between atoms: C3_3  and  O4_22 
REMARK    2  A    between atoms: C9_10  and  C11_13 
REMARK    3  A    between atoms: C11_13  and  N1_14 
REMARK    4  A    between atoms: O4_22  and  C17_23 
REMARK    5  A    between atoms: C20_26  and  O5_29 
ROOT
ATOM      1  C1  <0> d   1       1.346   1.950   4.823  0.00  0.00     0.079 C 
ATOM      2  C2  <0> d   1       2.075   2.224   3.533  0.00  0.00     0.086 A 
ATOM      3  C3  <0> d   1       3.348   2.694   3.581  0.00  0.00     0.142 A 
ATOM      4  C4  <0> d   1       4.048   2.945   2.388  0.00  0.00     0.156 A 
ATOM      5  C5  <0> d   1       3.385   2.711   1.164  0.00  0.00     0.038 A 
ATOM      6  C6  <0> d   1       4.022   2.957  -0.065  0.00  0.00     0.020 A 
ATOM      7  C7  <0> d   1       3.363   2.724  -1.229  0.00  0.00     0.041 A 
ATOM      8  C8  <0> d   1       2.043   2.236  -1.214  0.00  0.00     0.118 A 
ATOM      9  O1  <0> d   1       1.405   2.010  -2.364  0.00  0.00    -0.191 OA
ATOM     10  C9  <0> d   1       1.396   1.986  -0.001  0.00  0.00     0.039 A 
ATOM     11  C10 <0> d   1       2.057   2.226   1.190  0.00  0.00     0.099 A 
ATOM     12  O2  <0> d   1       1.450   1.997   2.372  0.00  0.00    -0.311 OA
ATOM     13  O3  <0> d   1       5.315   3.413   2.412  0.00  0.00    -0.188 OA
ENDROOT
BRANCH   3  14
ATOM     14  O4  <0> d   1       3.948   2.913   4.782  0.00  0.00    -0.305 OA
BRANCH  14  15
ATOM     15  C17 <0> d   1       4.646   1.889   5.342  0.00  0.00     0.076 A 
ATOM     16  C22 <0> d   1       5.275   2.066   6.566  0.00  0.00     0.040 A 
ATOM     17  C21 <0> d   1       5.984   1.026   7.135  0.00  0.00     0.039 A 
ATOM     18  C20 <0> d   1       6.067  -0.196   6.482  0.00  0.00     0.068 A 
ATOM     19  C19 <0> d   1       5.439  -0.372   5.258  0.00  0.00     0.039 A 
ATOM     20  C18 <0> d   1       4.725   0.666   4.692  0.00  0.00     0.040 A 
BRANCH  18  21
ATOM     21  O5  <0> d   1       6.765  -1.220   7.042  0.00  0.00    -0.356 OA
ATOM     22  C23 <0> d   1       6.809  -2.449   6.315  0.00  0.00     0.210 C 
ENDBRANCH  18  21
ENDBRANCH  14  15
ENDBRANCH   3  14
BRANCH  10  23
ATOM     23  C11 <0> d   1      -0.018   1.465   0.010  0.00  0.00     0.279 C 
BRANCH  23  24
ATOM     24  N1  <0> d   1       0.002  -0.004   0.002  0.00  0.00    -0.064 N 
ATOM     25  C15 <0> d   1      -1.339  -0.550   0.250  0.00  0.00     0.265 C 
ATOM     26  C14 <0> d   1      -1.262  -2.078   0.313  0.00  0.00     0.299 C 
ATOM     27  N2  <0> d   1      -0.713  -2.590  -0.951  0.00  0.00     0.087 N 
ATOM     28  C13 <0> d   1       0.628  -2.044  -1.199  0.00  0.00     0.299 C 
ATOM     29  C16 <0> d   1      -0.693  -4.059  -0.959  0.00  0.00     0.310 C 
ATOM     30  C12 <0> d   1       0.551  -0.516  -1.261  0.00  0.00     0.265 C 
ATOM     31  H26 <0> d   1       0.661  -0.337   0.818  0.00  0.00     0.280 HD
ENDBRANCH  23  24
ENDBRANCH  10  23
TORSDOF 5
