REMARK  8 active torsions:
REMARK  status: ('A' for Active; 'I' for Inactive)
REMARK    1  A    between atoms: C3_3  and  C19_25 
REMARK    2  A    between atoms: C8_9  and  O3_13 
REMARK    3  A    between atoms: O3_13  and  C11_14 
REMARK    4  A    between atoms: C11_14  and  C12_15 
REMARK    5  A    between atoms: C12_15  and  N1_16 
REMARK    6  A    between atoms: N2_19  and  C17_22 
REMARK    7  A    between atoms: C17_22  and  C18_23 
REMARK    8  A    between atoms: C18_23  and  O4_24 
ROOT
ATOM      1  C1  <0> d   1       4.435   6.115  -0.162  0.00  0.00     0.077 C 
ATOM      2  C2  <0> d   1       3.046   5.550  -0.008  0.00  0.00     0.065 A 
ATOM      3  C3  <0> d   1       2.008   6.409   0.162  0.00  0.00     0.054 A 
ATOM      4  C4  <0> d   1       0.651   5.857   0.311  0.00  0.00     0.198 A 
ATOM      5  O1  <0> d   1      -0.319   6.579   0.467  0.00  0.00    -0.286 OA
ATOM      6  C5  <0> d   1       0.522   4.389   0.264  0.00  0.00     0.049 A 
ATOM      7  C6  <0> d   1      -0.720   3.767   0.397  0.00  0.00     0.021 A 
ATOM      8  C7  <0> d   1      -0.805   2.405   0.343  0.00  0.00     0.038 A 
ATOM      9  C8  <0> d   1       0.344   1.635   0.168  0.00  0.00     0.071 A 
ATOM     10  C9  <0> d   1       1.583   2.238   0.035  0.00  0.00     0.075 A 
ATOM     11  C10 <0> d   1       1.686   3.622   0.082  0.00  0.00     0.092 A 
ATOM     12  O2  <0> d   1       2.885   4.225  -0.045  0.00  0.00    -0.313 OA
ENDROOT
BRANCH   9  13
ATOM     13  O3  <0> d   1       0.246   0.282   0.121  0.00  0.00    -0.349 OA
BRANCH  13  14
ATOM     14  C11 <0> d   1      -1.061  -0.279   0.264  0.00  0.00     0.206 C 
BRANCH  14  15
ATOM     15  C12 <0> d   1      -0.972  -1.804   0.186  0.00  0.00     0.299 C 
BRANCH  15  16
ATOM     16  N1  <0> d   1      -0.206  -2.310   1.333  0.00  0.00     0.093 N 
ATOM     17  C16 <0> d   1      -1.012  -2.277   2.561  0.00  0.00     0.302 C 
ATOM     18  C15 <0> d   1      -0.155  -2.735   3.743  0.00  0.00     0.302 C 
ATOM     19  N2  <0> d   1       0.348  -4.090   3.484  0.00  0.00     0.093 N 
ATOM     20  C14 <0> d   1       1.155  -4.123   2.256  0.00  0.00     0.302 C 
ATOM     21  C13 <0> d   1       0.298  -3.665   1.073  0.00  0.00     0.302 C 
BRANCH  19  22
ATOM     22  C17 <0> d   1       1.115  -4.596   4.630  0.00  0.00     0.298 C 
BRANCH  22  23
ATOM     23  C18 <0> d   1       0.152  -5.007   5.746  0.00  0.00     0.194 C 
BRANCH  23  24
ATOM     24  O4  <0> d   1      -0.642  -6.111   5.307  0.00  0.00    -0.399 OA
ATOM     25  H23 <0> d   1      -1.397  -6.547   5.978  0.00  0.00     0.209 HD
ENDBRANCH  23  24
ENDBRANCH  22  23
ENDBRANCH  19  22
ENDBRANCH  15  16
ENDBRANCH  14  15
ENDBRANCH  13  14
ENDBRANCH   9  13
BRANCH   3  26
ATOM     26  C19 <0> d   1       2.236   7.874   0.196  0.00  0.00    -0.019 A 
ATOM     27  C24 <0> d   1       1.983   8.594   1.362  0.00  0.00     0.014 A 
ATOM     28  C23 <0> d   1       2.198   9.957   1.388  0.00  0.00     0.024 A 
ATOM     29  C22 <0> d   1       2.664  10.609   0.259  0.00  0.00     0.034 A 
ATOM     30  C21 <0> d   1       2.917   9.898  -0.901  0.00  0.00     0.024 A 
ATOM     31 Cl1  <0> d   1       2.933  12.324   0.299  0.00  0.00    -0.084 Cl
ATOM     32  C20 <0> d   1       2.711   8.534  -0.937  0.00  0.00     0.014 A 
ENDBRANCH   3  26
TORSDOF 8
