REMARK  11 active torsions:
REMARK  status: ('A' for Active; 'I' for Inactive)
REMARK    1  A    between atoms: O1_2  and  C2_3 
REMARK    2  A    between atoms: C2_3  and  C3_4 
REMARK    3  A    between atoms: C3_4  and  N1_5 
REMARK    4  A    between atoms: N1_5  and  C4_6 
REMARK    5  A    between atoms: N1_5  and  C7_10 
REMARK    6  A    between atoms: C4_6  and  C5_7 
REMARK    7  A    between atoms: C5_7  and  O2_8 
REMARK    8  A    between atoms: C7_10  and  C8_11 
REMARK    9  A    between atoms: C15_19  and  C16_20 
REMARK   10  A    between atoms: C19_23  and  O5_28 
REMARK   11  A    between atoms: C21_25  and  O4_26 
ROOT
ATOM      1  C8  <0> d   1       0.103  -3.040   0.128  0.00  0.00     0.039 A 
ATOM      2  C9  <0> d   1       1.334  -3.314   0.701  0.00  0.00     0.118 A 
ATOM      3  C10 <0> d   1       1.414  -3.960   1.932  0.00  0.00     0.041 A 
ATOM      4  C11 <0> d   1       0.274  -4.330   2.588  0.00  0.00     0.021 A 
ATOM      5  C12 <0> d   1      -0.973  -4.060   2.022  0.00  0.00     0.051 A 
ATOM      6  C13 <0> d   1      -1.066  -3.404   0.784  0.00  0.00     0.101 A 
ATOM      7  O3  <0> d   1      -2.365  -3.249   0.448  0.00  0.00    -0.305 OA
ATOM      8  C14 <0> d   1      -3.192  -3.758   1.391  0.00  0.00     0.128 A 
ATOM      9  C15 <0> d   1      -4.551  -3.760   1.351  0.00  0.00     0.055 C 
ATOM     10  C24 <0> d   1      -2.356  -4.321   2.459  0.00  0.00     0.218 A 
ATOM     11  O6  <0> d   1      -2.724  -4.869   3.484  0.00  0.00    -0.284 OA
ATOM     12  O7  <0> d   1       2.473  -2.951   0.057  0.00  0.00    -0.191 OA
ENDROOT
BRANCH   1  13
ATOM     13  C7  <0> d   1       0.033  -2.340  -1.205  0.00  0.00     0.279 C 
BRANCH  13  14
ATOM     14  N1  <0> d   1      -0.011  -0.887  -0.994  0.00  0.00    -0.063 N 
ATOM     15  H29 <0> d   1      -0.740  -0.665  -0.333  0.00  0.00     0.280 HD
BRANCH  14  16
ATOM     16  C3  <0> d   1       1.282  -0.430  -0.468  0.00  0.00     0.261 C 
BRANCH  16  17
ATOM     17  C2  <0> d   1       1.193   1.056  -0.115  0.00  0.00     0.194 C 
BRANCH  17  18
ATOM     18  O1  <0> d   1       0.229   1.242   0.924  0.00  0.00    -0.394 OA
ATOM     19  C1  <0> d   1      -0.013   2.611   1.254  0.00  0.00     0.201 C 
ENDBRANCH  17  18
ENDBRANCH  16  17
ENDBRANCH  14  16
BRANCH  14  20
ATOM     20  C4  <0> d   1      -0.285  -0.214  -2.271  0.00  0.00     0.261 C 
BRANCH  20  21
ATOM     21  C5  <0> d   1       0.800  -0.581  -3.284  0.00  0.00     0.194 C 
BRANCH  21  22
ATOM     22  O2  <0> d   1       0.676  -1.960  -3.638  0.00  0.00    -0.394 OA
ATOM     23  C6  <0> d   1       1.709  -2.434  -4.504  0.00  0.00     0.201 C 
ENDBRANCH  21  22
ENDBRANCH  20  21
ENDBRANCH  14  20
ENDBRANCH  13  14
ENDBRANCH   1  13
BRANCH   9  24
ATOM     24  C16 <0> d   1      -5.248  -3.312   0.142  0.00  0.00     0.000 A 
ATOM     25  C21 <0> d   1      -6.614  -2.977   0.197  0.00  0.00     0.081 A 
ATOM     26  C20 <0> d   1      -7.259  -2.550  -0.950  0.00  0.00     0.074 A 
ATOM     27  C19 <0> d   1      -6.562  -2.465  -2.147  0.00  0.00     0.070 A 
ATOM     28  C18 <0> d   1      -5.212  -2.803  -2.200  0.00  0.00     0.038 A 
ATOM     29  C17 <0> d   1      -4.560  -3.221  -1.075  0.00  0.00     0.017 A 
BRANCH  25  30
ATOM     30  O4  <0> d   1      -7.292  -3.066   1.369  0.00  0.00    -0.355 OA
ATOM     31  C22 <0> d   1      -8.675  -2.709   1.347  0.00  0.00     0.210 C 
ENDBRANCH  25  30
BRANCH  27  32
ATOM     32  O5  <0> d   1      -7.198  -2.051  -3.272  0.00  0.00    -0.356 OA
ATOM     33  C23 <0> d   1      -6.422  -1.986  -4.470  0.00  0.00     0.210 C 
ENDBRANCH  27  32
ENDBRANCH   9  24
TORSDOF 11
