REMARK  6 active torsions:
REMARK  status: ('A' for Active; 'I' for Inactive)
REMARK    1  A    between atoms: C2_2  and  N1_3 
REMARK    2  A    between atoms: N1_3  and  C3_4 
REMARK    3  A    between atoms: N1_3  and  C5_6 
REMARK    4  A    between atoms: C5_6  and  C6_7 
REMARK    5  A    between atoms: C13_15  and  C15_18 
REMARK    6  A    between atoms: C18_21  and  O3_24 
ROOT
ATOM      1  C6  <0> d   1      -1.189   2.058   1.243  0.00  0.00     0.039 A 
ATOM      2  C7  <0> d   1      -0.972   3.362   1.655  0.00  0.00     0.118 A 
ATOM      3  C8  <0> d   1      -1.838   3.974   2.560  0.00  0.00     0.041 A 
ATOM      4  C9  <0> d   1      -2.907   3.288   3.062  0.00  0.00     0.021 A 
ATOM      5  C10 <0> d   1      -3.135   1.971   2.660  0.00  0.00     0.050 A 
ATOM      6  C11 <0> d   1      -2.272   1.347   1.743  0.00  0.00     0.100 A 
ATOM      7  O1  <0> d   1      -2.495   0.076   1.356  0.00  0.00    -0.320 OA
ATOM      8  C12 <0> d   1      -3.518  -0.658   1.802  0.00  0.00     0.159 A 
ATOM      9  C13 <0> d   1      -4.428  -0.180   2.689  0.00  0.00     0.048 A 
ATOM     10  C14 <0> d   1      -4.280   1.201   3.180  0.00  0.00     0.197 A 
ATOM     11  O2  <0> d   1      -5.066   1.683   3.978  0.00  0.00    -0.286 OA
ATOM     12  O4  <0> d   1       0.090   4.053   1.169  0.00  0.00    -0.191 OA
ENDROOT
BRANCH   9  13
ATOM     13  C15 <0> d   1      -5.548  -1.032   3.156  0.00  0.00    -0.020 A 
ATOM     14  C20 <0> d   1      -6.342  -1.711   2.233  0.00  0.00     0.015 A 
ATOM     15  C19 <0> d   1      -7.383  -2.502   2.670  0.00  0.00     0.037 A 
ATOM     16  C18 <0> d   1      -7.641  -2.624   4.029  0.00  0.00     0.068 A 
ATOM     17  C17 <0> d   1      -6.852  -1.950   4.951  0.00  0.00     0.037 A 
ATOM     18  C16 <0> d   1      -5.806  -1.161   4.520  0.00  0.00     0.015 A 
BRANCH  16  19
ATOM     19  O3  <0> d   1      -8.667  -3.405   4.457  0.00  0.00    -0.356 OA
ATOM     20  C21 <0> d   1      -8.877  -3.486   5.868  0.00  0.00     0.210 C 
ENDBRANCH  16  19
ENDBRANCH   9  13
BRANCH   1  21
ATOM     21  C5  <0> d   1      -0.250   1.411   0.258  0.00  0.00     0.279 C 
BRANCH  21  22
ATOM     22  N1  <0> d   1      -0.728   1.657  -1.109  0.00  0.00    -0.068 N 
ATOM     23  H23 <0> d   1      -0.893   2.738  -1.220  0.00  0.00     0.280 HD
BRANCH  22  24
ATOM     24  C2  <0> d   1       0.278   1.250  -2.099  0.00  0.00     0.231 C 
ATOM     25  C1  <0> d   1       1.399   2.290  -2.145  0.00  0.00     0.034 C 
ENDBRANCH  22  24
BRANCH  22  26
ATOM     26  C3  <0> d   1      -2.008   0.977  -1.349  0.00  0.00     0.231 C 
ATOM     27  C4  <0> d   1      -2.654   1.540  -2.616  0.00  0.00     0.034 C 
ENDBRANCH  22  26
ENDBRANCH  21  22
ENDBRANCH   1  21
TORSDOF 6
