REMARK  6 active torsions:
REMARK  status: ('A' for Active; 'I' for Inactive)
REMARK    1  A    between atoms: O1_2  and  C2_3 
REMARK    2  A    between atoms: C5_6  and  O6_32 
REMARK    3  A    between atoms: C6_7  and  C8_9 
REMARK    4  A    between atoms: N1_21  and  C19_24 
REMARK    5  A    between atoms: C19_24  and  C20_25 
REMARK    6  A    between atoms: C20_25  and  N2_26 
ROOT
ATOM      1  C8  <0> d   1       1.397  -4.094   2.224  0.00  0.00     0.055 C 
ATOM      2  C9  <0> d   1       0.749  -4.843   1.295  0.00  0.00     0.128 A 
ATOM      3  C10 <0> d   1       0.635  -6.308   1.287  0.00  0.00     0.218 A 
ATOM      4  O2  <0> d   1       1.092  -7.097   2.096  0.00  0.00    -0.284 OA
ATOM      5  C11 <0> d   1      -0.158  -6.610   0.081  0.00  0.00     0.051 A 
ATOM      6  C12 <0> d   1      -0.611  -7.799  -0.491  0.00  0.00     0.021 A 
ATOM      7  C13 <0> d   1      -1.343  -7.763  -1.643  0.00  0.00     0.038 A 
ATOM      8  C14 <0> d   1      -1.640  -6.544  -2.252  0.00  0.00     0.082 A 
ATOM      9  C15 <0> d   1      -1.198  -5.357  -1.693  0.00  0.00     0.038 A 
ATOM     10  C16 <0> d   1      -0.450  -5.376  -0.520  0.00  0.00     0.101 A 
ATOM     11  O3  <0> d   1       0.086  -4.375   0.211  0.00  0.00    -0.305 OA
ATOM     12  C17 <0> d   1      -1.519  -4.032  -2.337  0.00  0.00     0.319 C 
ATOM     13  N1  <0> d   1      -1.936  -4.249  -3.729  0.00  0.00     0.117 N 
ATOM     14  C18 <0> d   1      -2.962  -5.303  -3.793  0.00  0.00     0.447 C 
ATOM     15  O4  <0> d   1      -2.367  -6.542  -3.400  0.00  0.00    -0.321 OA
ENDROOT
BRANCH   1  16
ATOM     16  C6  <0> d   1       1.290  -2.631   2.191  0.00  0.00     0.003 A 
ATOM     17  C5  <0> d   1       1.638  -1.872   3.321  0.00  0.00     0.078 A 
ATOM     18  C4  <0> d   1       1.534  -0.491   3.281  0.00  0.00     0.040 A 
ATOM     19  C3  <0> d   1       1.090   0.139   2.134  0.00  0.00     0.039 A 
ATOM     20  C2  <0> d   1       0.743  -0.605   1.012  0.00  0.00     0.069 A 
ATOM     21  C7  <0> d   1       0.835  -1.984   1.036  0.00  0.00     0.051 A 
BRANCH  17  22
ATOM     22  O6  <0> d   1       2.075  -2.489   4.448  0.00  0.00    -0.355 OA
ATOM     23  C25 <0> d   1       2.412  -1.653   5.557  0.00  0.00     0.210 C 
ENDBRANCH  17  22
BRANCH  20  24
ATOM     24  O1  <0> d   1       0.307   0.026  -0.111  0.00  0.00    -0.356 OA
ATOM     25  C1  <0> d   1       0.237   1.452  -0.068  0.00  0.00     0.210 C 
ENDBRANCH  20  24
ENDBRANCH   1  16
BRANCH  13  26
ATOM     26  C19 <0> d   1      -2.425  -3.002  -4.332  0.00  0.00     0.305 C 
BRANCH  26  27
ATOM     27  C20 <0> d   1      -2.613  -3.203  -5.837  0.00  0.00     0.302 C 
BRANCH  27  28
ATOM     28  N2  <0> d   1      -3.101  -1.956  -6.441  0.00  0.00     0.094 N 
ATOM     29  C24 <0> d   1      -3.069  -2.033  -7.909  0.00  0.00     0.298 C 
ATOM     30  C23 <0> d   1      -3.529  -0.695  -8.494  0.00  0.00     0.198 C 
ATOM     31  O5  <0> d   1      -4.833  -0.385  -7.997  0.00  0.00    -0.388 OA
ATOM     32  C22 <0> d   1      -4.901  -0.302  -6.571  0.00  0.00     0.198 C 
ATOM     33  C21 <0> d   1      -4.455  -1.635  -5.965  0.00  0.00     0.298 C 
ENDBRANCH  27  28
ENDBRANCH  26  27
ENDBRANCH  13  26
TORSDOF 6
