REMARK  5 active torsions:
REMARK  status: ('A' for Active; 'I' for Inactive)
REMARK    1  A    between atoms: N2_5  and  C6_8 
REMARK    2  A    between atoms: C6_8  and  C7_9 
REMARK    3  A    between atoms: C8_10  and  O4_28 
REMARK    4  A    between atoms: C14_17  and  C15_18 
REMARK    5  A    between atoms: C19_22  and  O2_24 
ROOT
ATOM      1  C7  <0> d   1       2.212  -4.447   1.034  0.00  0.00     0.038 A 
ATOM      2  C8  <0> d   1       3.556  -4.638   0.757  0.00  0.00     0.076 A 
ATOM      3  C9  <0> d   1       4.423  -5.105   1.742  0.00  0.00     0.038 A 
ATOM      4  C10 <0> d   1       3.953  -5.380   2.995  0.00  0.00     0.021 A 
ATOM      5  C11 <0> d   1       2.602  -5.192   3.288  0.00  0.00     0.051 A 
ATOM      6  C12 <0> d   1       1.720  -4.717   2.305  0.00  0.00     0.101 A 
ATOM      7  O1  <0> d   1       0.476  -4.611   2.821  0.00  0.00    -0.305 OA
ATOM      8  C13 <0> d   1       0.437  -4.983   4.122  0.00  0.00     0.127 A 
ATOM      9  C14 <0> d   1      -0.658  -4.990   4.922  0.00  0.00     0.053 C 
ATOM     10  C22 <0> d   1       1.798  -5.389   4.508  0.00  0.00     0.218 A 
ATOM     11  O3  <0> d   1       2.178  -5.788   5.595  0.00  0.00    -0.284 OA
ENDROOT
BRANCH   9  12
ATOM     12  C15 <0> d   1      -1.935  -4.460   4.423  0.00  0.00    -0.031 A 
ATOM     13  C20 <0> d   1      -2.059  -4.066   3.087  0.00  0.00     0.048 A 
ATOM     14  C19 <0> d   1      -3.267  -3.575   2.624  0.00  0.00     0.069 A 
ATOM     15  C18 <0> d   1      -4.348  -3.461   3.488  0.00  0.00     0.037 A 
ATOM     16  C17 <0> d   1      -4.228  -3.843   4.812  0.00  0.00     0.004 A 
ATOM     17  C16 <0> d   1      -3.032  -4.341   5.285  0.00  0.00     0.011 A 
BRANCH  14  18
ATOM     18  O2  <0> d   1      -3.394  -3.197   1.325  0.00  0.00    -0.356 OA
ATOM     19  C21 <0> d   1      -4.667  -2.693   0.917  0.00  0.00     0.210 C 
ENDBRANCH  14  18
ENDBRANCH   9  12
BRANCH   1  20
ATOM     20  C6  <0> d   1       1.286  -3.941  -0.041  0.00  0.00     0.317 C 
BRANCH  20  21
ATOM     21  N2  <0> d   1       1.254  -2.473  -0.009  0.00  0.00     0.096 N 
ATOM     22  C3  <0> d   1       0.554  -1.935  -1.185  0.00  0.00     0.303 C 
ATOM     23  C2  <0> d   1       0.613  -0.406  -1.155  0.00  0.00     0.302 C 
ATOM     24  N1  <0> d   1      -0.001   0.081   0.089  0.00  0.00     0.087 N 
ATOM     25  C1  <0> d   1      -0.033   1.549   0.120  0.00  0.00     0.310 C 
ATOM     26  C5  <0> d   1       0.699  -0.457   1.264  0.00  0.00     0.302 C 
ATOM     27  C4  <0> d   1       0.640  -1.986   1.234  0.00  0.00     0.303 C 
ENDBRANCH  20  21
ENDBRANCH   1  20
BRANCH   2  28
ATOM     28  O4  <0> d   1       4.032  -4.368  -0.485  0.00  0.00    -0.360 OA
ATOM     29  H24 <0> d   1       4.339  -3.458  -0.600  0.00  0.00     0.217 HD
ENDBRANCH   2  28
TORSDOF 5
