REMARK  5 active torsions:
REMARK  status: ('A' for Active; 'I' for Inactive)
REMARK    1  A    between atoms: C5_5  and  C12_14 
REMARK    2  A    between atoms: C12_14  and  N1_15 
REMARK    3  A    between atoms: N2_18  and  C17_21 
REMARK    4  A    between atoms: C17_21  and  C18_22 
REMARK    5  A    between atoms: C18_22  and  C19_23 
ROOT
ATOM      1  N1  <0> d   1      -1.373  -1.790  -4.149  0.00  0.00     0.096 N 
ATOM      2  C13 <0> d   1      -1.952  -0.810  -3.220  0.00  0.00     0.303 C 
ATOM      3  C14 <0> d   1      -3.417  -0.565  -3.589  0.00  0.00     0.302 C 
ATOM      4  N2  <0> d   1      -3.497  -0.084  -4.975  0.00  0.00     0.092 N 
ATOM      5  C15 <0> d   1      -2.918  -1.065  -5.904  0.00  0.00     0.302 C 
ATOM      6  C16 <0> d   1      -1.453  -1.310  -5.535  0.00  0.00     0.303 C 
ENDROOT
BRANCH   1   7
ATOM      7  C12 <0> d   1       0.013  -2.109  -3.782  0.00  0.00     0.312 C 
BRANCH   7   8
ATOM      8  C5  <0> d   1       0.029  -2.824  -2.455  0.00  0.00    -0.011 A 
ATOM      9  C4  <0> d   1       0.025  -2.074  -1.195  0.00  0.00     0.007 A 
ATOM     10  C3  <0> d   1       0.006  -0.676  -1.188  0.00  0.00     0.022 A 
ATOM     11  C8  <0> d   1       0.040  -2.781   0.019  0.00  0.00     0.090 A 
ATOM     12  C2  <0> d   1       0.002  -0.004   0.002  0.00  0.00    -0.055 A 
ATOM     13  C1  <0> d   1      -0.018   1.503   0.010  0.00  0.00     0.049 C 
ATOM     14  C10 <0> d   1       0.023  -0.699   1.202  0.00  0.00    -0.053 A 
ATOM     15  C9  <0> d   1       0.036  -2.078   1.217  0.00  0.00     0.045 A 
ATOM     16  C11 <0> d   1       0.025   0.061   2.504  0.00  0.00     0.049 C 
ATOM     17  O2  <0> d   1       0.059  -4.131   0.011  0.00  0.00    -0.275 OA
ATOM     18  C7  <0> d   1       0.063  -4.825  -1.138  0.00  0.00     0.288 A 
ATOM     19  C6  <0> d   1       0.049  -4.179  -2.393  0.00  0.00     0.092 A 
ATOM     20  O1  <0> d   1       0.080  -6.042  -1.097  0.00  0.00    -0.260 OA
ENDBRANCH   7   8
ENDBRANCH   1   7
BRANCH   4  21
ATOM     21  C17 <0> d   1      -4.883   0.235  -5.342  0.00  0.00     0.277 C 
BRANCH  21  22
ATOM     22  C18 <0> d   1      -4.900   0.960  -6.689  0.00  0.00     0.069 C 
BRANCH  22  23
ATOM     23  C19 <0> d   1      -6.322   1.287  -7.066  0.00  0.00    -0.054 A 
ATOM     24  C23 <0> d   1      -6.900   2.487  -6.681  0.00  0.00     0.026 A 
ATOM     25  C22 <0> d   1      -8.205   2.755  -7.051  0.00  0.00     0.116 A 
ATOM     26  N3  <0> d   1      -8.901   1.881  -7.750  0.00  0.00    -0.273 NA
ATOM     27  C21 <0> d   1      -8.386   0.727  -8.128  0.00  0.00     0.116 A 
ATOM     28  C20 <0> d   1      -7.085   0.393  -7.801  0.00  0.00     0.026 A 
ENDBRANCH  22  23
ENDBRANCH  21  22
ENDBRANCH   4  21
TORSDOF 5
