REMARK  5 active torsions:
REMARK  status: ('A' for Active; 'I' for Inactive)
REMARK    1  A    between atoms: C4_4  and  O4_29 
REMARK    2  A    between atoms: C5_5  and  C18_21 
REMARK    3  A    between atoms: C10_11  and  C11_12 
REMARK    4  A    between atoms: C16_17  and  O2_18 
REMARK    5  A    between atoms: C18_21  and  N1_22 
ROOT
ATOM      1  C1  <0> d   1       2.554   7.791   2.304  0.00  0.00     0.049 C 
ATOM      2  C2  <0> d   1       2.535   6.306   2.048  0.00  0.00    -0.042 A 
ATOM      3  C3  <0> d   1       2.288   5.830   0.791  0.00  0.00     0.045 A 
ATOM      4  C4  <0> d   1       2.276   4.459   0.552  0.00  0.00     0.077 A 
ATOM      5  C5  <0> d   1       2.503   3.562   1.583  0.00  0.00     0.038 A 
ATOM      6  C6  <0> d   1       2.757   4.029   2.867  0.00  0.00     0.102 A 
ATOM      7  C7  <0> d   1       2.772   5.414   3.095  0.00  0.00     0.057 A 
ATOM      8  C8  <0> d   1       3.063   5.596   4.529  0.00  0.00     0.219 A 
ATOM      9  O1  <0> d   1       3.165   6.645   5.142  0.00  0.00    -0.284 OA
ATOM     10  C9  <0> d   1       3.202   4.230   5.053  0.00  0.00     0.128 A 
ATOM     11  C10 <0> d   1       3.474   3.889   6.339  0.00  0.00     0.055 C 
ATOM     12  O3  <0> d   1       3.010   3.375   4.021  0.00  0.00    -0.305 OA
ENDROOT
BRANCH   5  13
ATOM     13  C18 <0> d   1       2.482   2.080   1.311  0.00  0.00     0.317 C 
BRANCH  13  14
ATOM     14  N1  <0> d   1       1.119   1.566   1.502  0.00  0.00     0.096 N 
ATOM     15  C22 <0> d   1       1.102   0.097   1.478  0.00  0.00     0.300 C 
ATOM     16  C21 <0> d   1      -0.319  -0.398   1.759  0.00  0.00     0.264 C 
ATOM     17  N2  <0> d   1      -1.235   0.153   0.751  0.00  0.00    -0.072 N 
ATOM     18  C20 <0> d   1      -1.218   1.622   0.774  0.00  0.00     0.264 C 
ATOM     19  C23 <0> d   1      -2.598  -0.361   0.942  0.00  0.00     0.269 C 
ATOM     20  H26 <0> d   1      -0.887  -0.176  -0.240  0.00  0.00     0.279 HD
ATOM     21  C19 <0> d   1       0.203   2.117   0.493  0.00  0.00     0.300 C 
ENDBRANCH  13  14
ENDBRANCH   5  13
BRANCH   4  22
ATOM     22  O4  <0> d   1       2.034   3.997  -0.701  0.00  0.00    -0.360 OA
ATOM     23  H27 <0> d   1       2.023   2.914  -0.895  0.00  0.00     0.217 HD
ENDBRANCH   4  22
BRANCH  11  24
ATOM     24  C11 <0> d   1       3.431   2.480   6.748  0.00  0.00    -0.000 A 
ATOM     25  C16 <0> d   1       3.350   2.142   8.109  0.00  0.00     0.078 A 
ATOM     26  C15 <0> d   1       3.309   0.808   8.483  0.00  0.00     0.037 A 
ATOM     27  C14 <0> d   1       3.349  -0.183   7.522  0.00  0.00     0.003 A 
ATOM     28  C13 <0> d   1       3.429   0.145   6.178  0.00  0.00     0.001 A 
ATOM     29  C12 <0> d   1       3.465   1.464   5.785  0.00  0.00     0.014 A 
BRANCH  25  30
ATOM     30  O2  <0> d   1       3.310   3.116   9.053  0.00  0.00    -0.355 OA
ATOM     31  C17 <0> d   1       3.227   2.696  10.416  0.00  0.00     0.210 C 
ENDBRANCH  25  30
ENDBRANCH  11  24
TORSDOF 5
