REMARK  8 active torsions:
REMARK  status: ('A' for Active; 'I' for Inactive)
REMARK    1  A    between atoms: C4_4  and  O5_28 
REMARK    2  A    between atoms: C5_5  and  C15_18 
REMARK    3  A    between atoms: C9_10  and  C10_11 
REMARK    4  A    between atoms: C10_11  and  C11_12 
REMARK    5  A    between atoms: C15_18  and  N1_19 
REMARK    6  A    between atoms: N2_22  and  C20_25 
REMARK    7  A    between atoms: C20_25  and  C21_26 
REMARK    8  A    between atoms: C21_26  and  O4_27 
ROOT
ATOM      1  C1  <0> d   1       3.303  -1.183   0.013  0.00  0.00     0.049 C 
ATOM      2  C2  <0> d   1       2.535   0.114   0.013  0.00  0.00    -0.042 A 
ATOM      3  C3  <0> d   1       3.203   1.306  -0.029  0.00  0.00     0.045 A 
ATOM      4  C4  <0> d   1       2.497   2.505  -0.028  0.00  0.00     0.077 A 
ATOM      5  C5  <0> d   1       1.112   2.507   0.016  0.00  0.00     0.038 A 
ATOM      6  C6  <0> d   1       0.419   1.306   0.059  0.00  0.00     0.102 A 
ATOM      7  C7  <0> d   1       1.142   0.101   0.057  0.00  0.00     0.057 A 
ATOM      8  C8  <0> d   1       0.138  -0.977   0.108  0.00  0.00     0.219 A 
ATOM      9  O1  <0> d   1       0.342  -2.180   0.123  0.00  0.00    -0.284 OA
ATOM     10  C9  <0> d   1      -1.119  -0.314   0.135  0.00  0.00     0.129 A 
ATOM     11  O3  <0> d   1      -0.900   1.022   0.105  0.00  0.00    -0.305 OA
ENDROOT
BRANCH   5  12
ATOM     12  C15 <0> d   1       0.359   3.813   0.017  0.00  0.00     0.317 C 
BRANCH  12  13
ATOM     13  N1  <0> d   1       0.158   4.261   1.401  0.00  0.00     0.096 N 
ATOM     14  C19 <0> d   1      -0.358   5.636   1.439  0.00  0.00     0.303 C 
ATOM     15  C18 <0> d   1      -0.478   6.093   2.895  0.00  0.00     0.302 C 
ATOM     16  N2  <0> d   1      -1.370   5.178   3.621  0.00  0.00     0.093 N 
ATOM     17  C17 <0> d   1      -0.854   3.803   3.583  0.00  0.00     0.302 C 
ATOM     18  C16 <0> d   1      -0.734   3.346   2.127  0.00  0.00     0.303 C 
BRANCH  16  19
ATOM     19  C20 <0> d   1      -1.571   5.626   5.005  0.00  0.00     0.298 C 
BRANCH  19  20
ATOM     20  C21 <0> d   1      -2.533   6.816   5.021  0.00  0.00     0.194 C 
BRANCH  20  21
ATOM     21  O4  <0> d   1      -3.819   6.396   4.562  0.00  0.00    -0.399 OA
ATOM     22  H23 <0> d   1      -4.645   7.120   4.505  0.00  0.00     0.209 HD
ENDBRANCH  20  21
ENDBRANCH  19  20
ENDBRANCH  16  19
ENDBRANCH  12  13
ENDBRANCH   5  12
BRANCH   4  23
ATOM     23  O5  <0> d   1       3.171   3.683  -0.069  0.00  0.00    -0.360 OA
ATOM     24  H24 <0> d   1       2.617   4.633  -0.069  0.00  0.00     0.217 HD
ENDBRANCH   4  23
BRANCH  10  25
ATOM     25  C10 <0> d   1      -2.339  -0.921   0.183  0.00  0.00     0.078 C 
BRANCH  25  26
ATOM     26  C11 <0> d   1      -3.516  -0.140   0.206  0.00  0.00     0.077 A 
ATOM     27  O2  <0> d   1      -3.577   1.208   0.191  0.00  0.00    -0.323 OA
ATOM     28  C14 <0> d   1      -4.860   1.597   0.217  0.00  0.00     0.142 A 
ATOM     29  C13 <0> d   1      -5.652   0.502   0.261  0.00  0.00     0.027 A 
ATOM     30  C12 <0> d   1      -4.811  -0.620   0.254  0.00  0.00     0.039 A 
ENDBRANCH  25  26
ENDBRANCH  10  25
TORSDOF 8
