REMARK  5 active torsions:
REMARK  status: ('A' for Active; 'I' for Inactive)
REMARK    1  A    between atoms: C9_10  and  C12_15 
REMARK    2  A    between atoms: C12_15  and  N1_16 
REMARK    3  A    between atoms: N2_19  and  C17_22 
REMARK    4  A    between atoms: C17_22  and  C18_23 
REMARK    5  A    between atoms: C17_22  and  C24_29 
ROOT
ATOM      1  N1  <0> d   1       4.547  -0.871  -2.177  0.00  0.00     0.096 N 
ATOM      2  C13 <0> d   1       3.583  -1.829  -2.737  0.00  0.00     0.303 C 
ATOM      3  C14 <0> d   1       4.179  -2.474  -3.990  0.00  0.00     0.304 C 
ATOM      4  N2  <0> d   1       5.439  -3.144  -3.641  0.00  0.00     0.105 N 
ATOM      5  C15 <0> d   1       6.403  -2.186  -3.081  0.00  0.00     0.304 C 
ATOM      6  C16 <0> d   1       5.808  -1.541  -1.828  0.00  0.00     0.303 C 
ENDROOT
BRANCH   1   7
ATOM      7  C12 <0> d   1       3.982  -0.174  -1.014  0.00  0.00     0.312 C 
BRANCH   7   8
ATOM      8  C9  <0> d   1       2.947   0.819  -1.477  0.00  0.00    -0.011 A 
ATOM      9  C5  <0> d   1       2.177   1.610  -0.513  0.00  0.00     0.014 A 
ATOM     10  C4  <0> d   1       1.222   2.526  -0.989  0.00  0.00     0.091 A 
ATOM     11  C6  <0> d   1       2.381   1.466   0.863  0.00  0.00    -0.026 A 
ATOM     12  C3  <0> d   1       0.488   3.280  -0.084  0.00  0.00     0.046 A 
ATOM     13  O2  <0> d   1       1.028   2.663  -2.319  0.00  0.00    -0.275 OA
ATOM     14  C2  <0> d   1       0.699   3.129   1.270  0.00  0.00    -0.037 A 
ATOM     15  C1  <0> d   1      -0.101   3.951   2.247  0.00  0.00     0.050 C 
ATOM     16  C7  <0> d   1       1.642   2.225   1.744  0.00  0.00     0.046 A 
ATOM     17 Cl1  <0> d   1       1.889   2.051   3.453  0.00  0.00    -0.083 Cl
ATOM     18  C11 <0> d   1       1.729   1.943  -3.207  0.00  0.00     0.288 A 
ATOM     19  C10 <0> d   1       2.703   1.005  -2.799  0.00  0.00     0.092 A 
ATOM     20  O1  <0> d   1       1.520   2.101  -4.397  0.00  0.00    -0.260 OA
ATOM     21  C8  <0> d   1       3.403   0.486   1.379  0.00  0.00     0.051 C 
ENDBRANCH   7   8
ENDBRANCH   1   7
BRANCH   4  22
ATOM     22  C17 <0> d   1       6.005  -3.841  -4.804  0.00  0.00     0.289 C 
BRANCH  22  23
ATOM     23  C18 <0> d   1       7.205  -4.645  -4.373  0.00  0.00    -0.021 A 
ATOM     24  C23 <0> d   1       8.296  -4.761  -5.213  0.00  0.00     0.010 A 
ATOM     25  C22 <0> d   1       9.397  -5.498  -4.818  0.00  0.00     0.001 A 
ATOM     26  C21 <0> d   1       9.406  -6.119  -3.583  0.00  0.00     0.000 A 
ATOM     27  C20 <0> d   1       8.314  -6.003  -2.743  0.00  0.00     0.001 A 
ATOM     28  C19 <0> d   1       7.216  -5.261  -3.136  0.00  0.00     0.010 A 
ENDBRANCH  22  23
BRANCH  22  29
ATOM     29  C24 <0> d   1       4.967  -4.763  -5.391  0.00  0.00    -0.021 A 
ATOM     30  C29 <0> d   1       4.814  -4.847  -6.762  0.00  0.00     0.010 A 
ATOM     31  C28 <0> d   1       3.862  -5.693  -7.300  0.00  0.00     0.001 A 
ATOM     32  C27 <0> d   1       3.063  -6.454  -6.467  0.00  0.00     0.000 A 
ATOM     33  C26 <0> d   1       3.216  -6.369  -5.096  0.00  0.00     0.001 A 
ATOM     34  C25 <0> d   1       4.172  -5.527  -4.558  0.00  0.00     0.010 A 
ENDBRANCH  22  29
ENDBRANCH   4  22
TORSDOF 5
