REMARK  5 active torsions:
REMARK  status: ('A' for Active; 'I' for Inactive)
REMARK    1  A    between atoms: C2_2  and  N1_3 
REMARK    2  A    between atoms: N2_6  and  C7_9 
REMARK    3  A    between atoms: C7_9  and  C8_10 
REMARK    4  A    between atoms: C9_11  and  O4_27 
REMARK    5  A    between atoms: C15_18  and  C16_19 
ROOT
ATOM      1  C8  <0> d   1       1.706   3.165   0.003  0.00  0.00     0.038 A 
ATOM      2  C9  <0> d   1       3.071   3.406  -0.009  0.00  0.00     0.077 A 
ATOM      3  C10 <0> d   1       3.976   2.349  -0.023  0.00  0.00     0.045 A 
ATOM      4  C11 <0> d   1       3.526   1.058  -0.026  0.00  0.00    -0.042 A 
ATOM      5  C12 <0> d   1       2.156   0.800  -0.014  0.00  0.00     0.057 A 
ATOM      6  C13 <0> d   1       1.234   1.860   0.000  0.00  0.00     0.102 A 
ATOM      7  O1  <0> d   1      -0.016   1.349   0.009  0.00  0.00    -0.305 OA
ATOM      8  C14 <0> d   1       0.002  -0.004   0.002  0.00  0.00     0.129 A 
ATOM      9  C15 <0> d   1      -1.094  -0.816   0.007  0.00  0.00     0.078 C 
ATOM     10  C20 <0> d   1       1.356  -0.437  -0.013  0.00  0.00     0.219 A 
ATOM     11  O3  <0> d   1       1.767  -1.585  -0.023  0.00  0.00    -0.284 OA
ATOM     12  C21 <0> d   1       4.509  -0.084  -0.041  0.00  0.00     0.049 C 
ENDROOT
BRANCH   1  13
ATOM     13  C7  <0> d   1       0.737   4.319   0.019  0.00  0.00     0.317 C 
BRANCH  13  14
ATOM     14  N2  <0> d   1       0.435   4.686   1.409  0.00  0.00     0.096 N 
ATOM     15  C4  <0> d   1      -0.315   5.948   1.469  0.00  0.00     0.303 C 
ATOM     16  C3  <0> d   1      -0.539   6.336   2.933  0.00  0.00     0.302 C 
ATOM     17  N1  <0> d   1      -1.270   5.259   3.615  0.00  0.00     0.091 N 
ATOM     18  C6  <0> d   1      -0.520   3.997   3.555  0.00  0.00     0.302 C 
ATOM     19  C5  <0> d   1      -0.296   3.609   2.091  0.00  0.00     0.303 C 
BRANCH  17  20
ATOM     20  C2  <0> d   1      -1.571   5.626   5.005  0.00  0.00     0.268 C 
ATOM     21  C1  <0> d   1      -2.538   4.603   5.605  0.00  0.00     0.037 C 
ENDBRANCH  17  20
ENDBRANCH  13  14
ENDBRANCH   1  13
BRANCH   2  22
ATOM     22  O4  <0> d   1       3.529   4.684  -0.006  0.00  0.00    -0.360 OA
ATOM     23  H24 <0> d   1       4.611   4.880  -0.015  0.00  0.00     0.217 HD
ENDBRANCH   2  22
BRANCH   9  24
ATOM     24  C16 <0> d   1      -2.390  -0.254   0.022  0.00  0.00     0.077 A 
ATOM     25  O2  <0> d   1      -2.685   1.063   0.039  0.00  0.00    -0.323 OA
ATOM     26  C19 <0> d   1      -4.016   1.222   0.046  0.00  0.00     0.142 A 
ATOM     27  C18 <0> d   1      -4.606   0.005   0.044  0.00  0.00     0.027 A 
ATOM     28  C17 <0> d   1      -3.582  -0.953   0.029  0.00  0.00     0.039 A 
ENDBRANCH   9  24
TORSDOF 5
