REMARK  7 active torsions:
REMARK  status: ('A' for Active; 'I' for Inactive)
REMARK    1  A    between atoms: N1_4  and  C7_9 
REMARK    2  A    between atoms: C7_9  and  C8_10 
REMARK    3  A    between atoms: C8_10  and  O2_11 
REMARK    4  A    between atoms: O2_11  and  C9_12 
REMARK    5  A    between atoms: C12_15  and  C15_19 
REMARK    6  A    between atoms: C13_16  and  O3_18 
REMARK    7  A    between atoms: C16_20  and  C18_25 
ROOT
ATOM      1  C9  <0> d   1       6.308   0.402  -1.503  0.00  0.00     0.071 A 
ATOM      2  C10 <0> d   1       6.540   1.522  -2.291  0.00  0.00     0.038 A 
ATOM      3  C11 <0> d   1       7.766   2.153  -2.255  0.00  0.00     0.019 A 
ATOM      4  C12 <0> d   1       8.775   1.667  -1.426  0.00  0.00     0.029 A 
ATOM      5  C13 <0> d   1       8.541   0.540  -0.633  0.00  0.00     0.081 A 
ATOM      6  C14 <0> d   1       7.306  -0.085  -0.671  0.00  0.00     0.074 A 
ENDROOT
BRANCH   4   7
ATOM      7  C15 <0> d   1      10.094   2.344  -1.386  0.00  0.00     0.102 A 
ATOM      8  N3  <0> d   1      10.752   2.694  -0.303  0.00  0.00    -0.174 NA
ATOM      9  N2  <0> d   1      11.953   3.301  -0.692  0.00  0.00    -0.288 N 
ATOM     10  C17 <0> d   1      12.004   3.319  -2.039  0.00  0.00     0.124 A 
ATOM     11  H3  <0> d   1      12.630   3.652  -0.093  0.00  0.00     0.188 HD
ATOM     12  C16 <0> d   1      10.867   2.733  -2.509  0.00  0.00     0.022 A 
BRANCH  12  13
ATOM     13  C18 <0> d   1      10.504   2.539  -3.934  0.00  0.00    -0.022 A 
ATOM     14  C23 <0> d   1      10.494   3.625  -4.808  0.00  0.00     0.014 A 
ATOM     15  C22 <0> d   1      10.162   3.437  -6.134  0.00  0.00     0.020 A 
ATOM     16  C21 <0> d   1       9.828   2.175  -6.595  0.00  0.00     0.011 A 
ATOM     17  C20 <0> d   1       9.831   1.095  -5.730  0.00  0.00     0.020 A 
ATOM     18 Br1  <0> d   1       9.367   1.927  -8.412  0.00  0.00    -0.051 Br
ATOM     19  C19 <0> d   1      10.167   1.270  -4.403  0.00  0.00     0.014 A 
ENDBRANCH  12  13
ENDBRANCH   4   7
BRANCH   5  20
ATOM     20  O3  <0> d   1       9.521   0.061   0.177  0.00  0.00    -0.360 OA
ATOM     21  H21 <0> d   1       9.518   0.442   1.066  0.00  0.00     0.217 HD
ENDBRANCH   5  20
BRANCH   1  22
ATOM     22  O2  <0> d   1       5.098  -0.216  -1.543  0.00  0.00    -0.349 OA
BRANCH  22  23
ATOM     23  C8  <0> d   1       4.116   0.337  -2.421  0.00  0.00     0.206 C 
BRANCH  23  24
ATOM     24  C7  <0> d   1       2.830  -0.486  -2.330  0.00  0.00     0.299 C 
BRANCH  24  25
ATOM     25  N1  <0> d   1       2.274  -0.378  -0.975  0.00  0.00     0.095 N 
ATOM     26  C3  <0> d   1       1.618   0.922  -0.776  0.00  0.00     0.303 C 
ATOM     27  C2  <0> d   1       1.107   1.015   0.664  0.00  0.00     0.146 C 
ATOM     28  C1  <0> d   1       2.292   0.959   1.631  0.00  0.00     0.041 C 
ATOM     29  O1  <0> d   1       0.226  -0.081   0.925  0.00  0.00    -0.378 OA
ATOM     30  C5  <0> d   1       0.833  -1.363   0.741  0.00  0.00     0.146 C 
ATOM     31  C4  <0> d   1       1.341  -1.480  -0.699  0.00  0.00     0.303 C 
ATOM     32  C6  <0> d   1      -0.199  -2.461   1.009  0.00  0.00     0.041 C 
ENDBRANCH  24  25
ENDBRANCH  23  24
ENDBRANCH  22  23
ENDBRANCH   1  22
TORSDOF 7
