REMARK  4 active torsions:
REMARK  status: ('A' for Active; 'I' for Inactive)
REMARK    1  A    between atoms: C2_2  and  C3_3 
REMARK    2  A    between atoms: N1_8  and  C8_9 
REMARK    3  A    between atoms: C8_9  and  C9_10 
REMARK    4  A    between atoms: C16_18  and  C18_21 
ROOT
ATOM      1  C9  <0> d   1       1.418   2.049  -0.889  0.00  0.00     0.039 A 
ATOM      2  C10 <0> d   1       0.620   1.795   0.214  0.00  0.00     0.118 A 
ATOM      3  C11 <0> d   1       1.038   2.162   1.492  0.00  0.00     0.041 A 
ATOM      4  C12 <0> d   1       2.248   2.768   1.674  0.00  0.00     0.021 A 
ATOM      5  C13 <0> d   1       3.063   3.031   0.572  0.00  0.00     0.050 A 
ATOM      6  C14 <0> d   1       2.649   2.670  -0.722  0.00  0.00     0.100 A 
ATOM      7  O1  <0> d   1       3.438   2.923  -1.785  0.00  0.00    -0.320 OA
ATOM      8  C15 <0> d   1       4.629   3.515  -1.690  0.00  0.00     0.161 A 
ATOM      9  C16 <0> d   1       5.154   3.917  -0.499  0.00  0.00     0.073 A 
ATOM     10  C17 <0> d   1       4.373   3.688   0.731  0.00  0.00     0.199 A 
ATOM     11  O2  <0> d   1       4.791   4.026   1.825  0.00  0.00    -0.286 OA
ATOM     12  O3  <0> d   1      -0.583   1.189   0.048  0.00  0.00    -0.191 OA
ENDROOT
BRANCH   1  13
ATOM     13  C8  <0> d   1       0.953   1.653  -2.266  0.00  0.00     0.279 C 
BRANCH  13  14
ATOM     14  N1  <0> d   1       0.198   2.761  -2.865  0.00  0.00    -0.063 N 
ATOM     15  C3  <0> d   1      -0.448   2.342  -4.116  0.00  0.00     0.188 C 
ATOM     16  C4  <0> d   1      -1.340   3.472  -4.635  0.00  0.00     0.033 C 
ATOM     17  C5  <0> d   1      -0.487   4.721  -4.873  0.00  0.00     0.004 C 
ATOM     18  C6  <0> d   1       0.213   5.108  -3.567  0.00  0.00     0.028 C 
ATOM     19  C7  <0> d   1       1.060   3.930  -3.079  0.00  0.00     0.235 C 
ATOM     20  H24 <0> d   1      -0.595   3.053  -2.160  0.00  0.00     0.280 HD
BRANCH  15  21
ATOM     21  C2  <0> d   1      -1.301   1.098  -3.857  0.00  0.00     0.029 C 
ATOM     22  C1  <0> d   1      -1.933   0.631  -5.170  0.00  0.00     0.007 C 
ENDBRANCH  15  21
ENDBRANCH  13  14
ENDBRANCH   1  13
BRANCH   9  23
ATOM     23  C18 <0> d   1       6.477   4.569  -0.441  0.00  0.00     0.115 A 
ATOM     24  S1  <0> d   1       7.362   5.185   0.985  0.00  0.00    -0.067 SA
ATOM     25  C24 <0> d   1       8.798   5.771   0.119  0.00  0.00     0.035 A 
ATOM     26  C19 <0> d   1       8.491   5.455  -1.225  0.00  0.00     0.075 A 
ATOM     27  C23 <0> d   1       9.970   6.388   0.484  0.00  0.00     0.021 A 
ATOM     28  N2  <0> d   1       7.303   4.851  -1.426  0.00  0.00    -0.239 NA
ATOM     29  C20 <0> d   1       9.464   5.812  -2.188  0.00  0.00     0.033 A 
ATOM     30  C21 <0> d   1      10.621   6.423  -1.817  0.00  0.00     0.002 A 
ATOM     31  C22 <0> d   1      10.895   6.720  -0.489  0.00  0.00     0.002 A 
ENDBRANCH   9  23
TORSDOF 4
