REMARK  7 active torsions:
REMARK  status: ('A' for Active; 'I' for Inactive)
REMARK    1  A    between atoms: C6_6  and  C8_8 
REMARK    2  A    between atoms: C14_15  and  O4_29 
REMARK    3  A    between atoms: C15_16  and  C17_19 
REMARK    4  A    between atoms: C17_19  and  N1_20 
REMARK    5  A    between atoms: N2_23  and  C22_26 
REMARK    6  A    between atoms: C22_26  and  C23_27 
REMARK    7  A    between atoms: C23_27  and  O3_28 
ROOT
ATOM      1  C8  <0> d   1       0.052  -2.845   2.448  0.00  0.00     0.053 C 
ATOM      2  C9  <0> d   1      -0.032  -4.199   2.437  0.00  0.00     0.127 A 
ATOM      3  C10 <0> d   1      -0.137  -5.073   3.616  0.00  0.00     0.218 A 
ATOM      4  O1  <0> d   1      -0.168  -4.744   4.789  0.00  0.00    -0.284 OA
ATOM      5  C11 <0> d   1      -0.199  -6.437   3.060  0.00  0.00     0.051 A 
ATOM      6  C12 <0> d   1      -0.303  -7.701   3.641  0.00  0.00     0.021 A 
ATOM      7  C13 <0> d   1      -0.338  -8.814   2.850  0.00  0.00     0.038 A 
ATOM      8  C14 <0> d   1      -0.270  -8.689   1.465  0.00  0.00     0.076 A 
ATOM      9  C15 <0> d   1      -0.167  -7.441   0.874  0.00  0.00     0.038 A 
ATOM     10  C16 <0> d   1      -0.130  -6.299   1.664  0.00  0.00     0.101 A 
ATOM     11  O2  <0> d   1      -0.039  -4.991   1.339  0.00  0.00    -0.305 OA
ENDROOT
BRANCH   9  12
ATOM     12  C17 <0> d   1      -0.093  -7.321  -0.627  0.00  0.00     0.317 C 
BRANCH  12  13
ATOM     13  N1  <0> d   1      -1.451  -7.196  -1.175  0.00  0.00     0.096 N 
ATOM     14  C21 <0> d   1      -1.412  -6.841  -2.600  0.00  0.00     0.303 C 
ATOM     15  C20 <0> d   1      -2.841  -6.643  -3.113  0.00  0.00     0.302 C 
ATOM     16  N2  <0> d   1      -3.610  -7.878  -2.901  0.00  0.00     0.093 N 
ATOM     17  C19 <0> d   1      -3.648  -8.233  -1.475  0.00  0.00     0.302 C 
ATOM     18  C18 <0> d   1      -2.220  -8.431  -0.963  0.00  0.00     0.303 C 
BRANCH  16  19
ATOM     19  C22 <0> d   1      -4.967  -7.753  -3.449  0.00  0.00     0.298 C 
BRANCH  19  20
ATOM     20  C23 <0> d   1      -4.893  -7.631  -4.972  0.00  0.00     0.194 C 
BRANCH  20  21
ATOM     21  O3  <0> d   1      -4.373  -8.844  -5.522  0.00  0.00    -0.399 OA
ATOM     22  H25 <0> d   1      -4.298  -8.838  -6.486  0.00  0.00     0.209 HD
ENDBRANCH  20  21
ENDBRANCH  19  20
ENDBRANCH  16  19
ENDBRANCH  12  13
ENDBRANCH   9  12
BRANCH   8  23
ATOM     23  O4  <0> d   1      -0.305  -9.801   0.687  0.00  0.00    -0.360 OA
ATOM     24  H26 <0> d   1      -1.196 -10.069   0.423  0.00  0.00     0.217 HD
ENDBRANCH   8  23
BRANCH   1  25
ATOM     25  C6  <0> d   1       0.032  -2.097   1.183  0.00  0.00    -0.033 A 
ATOM     26  C5  <0> d   1       0.054  -2.780  -0.038  0.00  0.00     0.011 A 
ATOM     27  C4  <0> d   1       0.035  -2.070  -1.220  0.00  0.00     0.001 A 
ATOM     28  C3  <0> d   1      -0.008  -0.687  -1.201  0.00  0.00     0.007 A 
ATOM     29  C2  <0> d   1      -0.030  -0.004   0.003  0.00  0.00    -0.061 A 
ATOM     30  C1  <0> d   1      -0.076   1.502   0.012  0.00  0.00     0.048 C 
ATOM     31  C7  <0> d   1      -0.005  -0.698   1.194  0.00  0.00     0.018 A 
ENDBRANCH   1  25
TORSDOF 7
