REMARK  6 active torsions:
REMARK  status: ('A' for Active; 'I' for Inactive)
REMARK    1  A    between atoms: O1_2  and  C2_3 
REMARK    2  A    between atoms: C5_6  and  C10_13 
REMARK    3  A    between atoms: C6_7  and  O3_11 
REMARK    4  A    between atoms: C7_8  and  O2_9 
REMARK    5  A    between atoms: C17_21  and  C19_24 
REMARK    6  A    between atoms: C19_24  and  N1_25 
ROOT
ATOM      1  C10 <0> d   1      -1.383   4.661   0.038  0.00  0.00     0.055 C 
ATOM      2  C11 <0> d   1      -0.591   3.588  -0.225  0.00  0.00     0.128 A 
ATOM      3  C12 <0> d   1       0.876   3.583  -0.264  0.00  0.00     0.218 A 
ATOM      4  O4  <0> d   1       1.631   4.521  -0.070  0.00  0.00    -0.284 OA
ATOM      5  C13 <0> d   1       1.233   2.190  -0.588  0.00  0.00     0.051 A 
ATOM      6  C14 <0> d   1       2.452   1.534  -0.769  0.00  0.00     0.021 A 
ATOM      7  C15 <0> d   1       2.469   0.202  -1.072  0.00  0.00     0.041 A 
ATOM      8  C16 <0> d   1       1.275  -0.502  -1.200  0.00  0.00     0.118 A 
ATOM      9  C17 <0> d   1       0.058   0.136  -1.024  0.00  0.00     0.041 A 
ATOM     10  C18 <0> d   1       0.023   1.491  -0.716  0.00  0.00     0.101 A 
ATOM     11  O5  <0> d   1      -1.013   2.332  -0.503  0.00  0.00    -0.305 OA
ATOM     12  O7  <0> d   1       1.303  -1.826  -1.501  0.00  0.00    -0.191 OA
ENDROOT
BRANCH   1  13
ATOM     13  C5  <0> d   1      -2.840   4.537  -0.059  0.00  0.00     0.003 A 
ATOM     14  C4  <0> d   1      -3.441   3.271  -0.060  0.00  0.00     0.017 A 
ATOM     15  C3  <0> d   1      -4.809   3.158  -0.151  0.00  0.00     0.040 A 
ATOM     16  C2  <0> d   1      -5.602   4.297  -0.244  0.00  0.00     0.104 A 
ATOM     17  C7  <0> d   1      -5.020   5.560  -0.245  0.00  0.00     0.136 A 
ATOM     18  C6  <0> d   1      -3.642   5.688  -0.147  0.00  0.00     0.114 A 
BRANCH  16  19
ATOM     19  O1  <0> d   1      -6.952   4.175  -0.334  0.00  0.00    -0.353 OA
ATOM     20  C1  <0> d   1      -7.486   2.850  -0.328  0.00  0.00     0.210 C 
ENDBRANCH  16  19
BRANCH  17  21
ATOM     21  O2  <0> d   1      -5.802   6.670  -0.336  0.00  0.00    -0.351 OA
ATOM     22  C8  <0> d   1      -6.263   7.241   0.891  0.00  0.00     0.210 C 
ENDBRANCH  17  21
BRANCH  18  23
ATOM     23  O3  <0> d   1      -3.070   6.920  -0.141  0.00  0.00    -0.352 OA
ATOM     24  C9  <0> d   1      -2.709   7.473  -1.409  0.00  0.00     0.210 C 
ENDBRANCH  18  23
ENDBRANCH   1  13
BRANCH   9  25
ATOM     25  C19 <0> d   1      -1.227  -0.639  -1.167  0.00  0.00     0.317 C 
BRANCH  25  26
ATOM     26  N1  <0> d   1      -1.679  -0.584  -2.563  0.00  0.00     0.097 N 
ATOM     27  C23 <0> d   1      -2.792  -1.516  -2.794  0.00  0.00     0.299 C 
ATOM     28  C22 <0> d   1      -3.191  -1.471  -4.271  0.00  0.00     0.198 C 
ATOM     29  O6  <0> d   1      -3.528  -0.127  -4.627  0.00  0.00    -0.388 OA
ATOM     30  C21 <0> d   1      -2.466   0.807  -4.416  0.00  0.00     0.198 C 
ATOM     31  C20 <0> d   1      -2.059   0.785  -2.941  0.00  0.00     0.299 C 
ENDBRANCH  25  26
ENDBRANCH   9  25
TORSDOF 6
