REMARK  7 active torsions:
REMARK  status: ('A' for Active; 'I' for Inactive)
REMARK    1  A    between atoms: C4_4  and  C7_7 
REMARK    2  A    between atoms: C9_12  and  C10_13 
REMARK    3  A    between atoms: C13_16  and  O2_20 
REMARK    4  A    between atoms: C15_18  and  O1_19 
REMARK    5  A    between atoms: O2_20  and  C16_21 
REMARK    6  A    between atoms: C16_21  and  C17_22 
REMARK    7  A    between atoms: C20_25  and  N3_28 
ROOT
ATOM      1  C10 <0> d   1       3.206  -2.115   1.973  0.00  0.00     0.029 A 
ATOM      2  C11 <0> d   1       1.899  -1.647   2.098  0.00  0.00     0.019 A 
ATOM      3  C12 <0> d   1       1.107  -2.082   3.140  0.00  0.00     0.038 A 
ATOM      4  C13 <0> d   1       1.609  -2.986   4.068  0.00  0.00     0.071 A 
ATOM      5  C14 <0> d   1       2.909  -3.456   3.952  0.00  0.00     0.074 A 
ATOM      6  C15 <0> d   1       3.708  -3.030   2.905  0.00  0.00     0.081 A 
ENDROOT
BRANCH   1   7
ATOM      7  C9  <0> d   1       4.059  -1.650   0.854  0.00  0.00     0.102 A 
ATOM      8  C7  <0> d   1       3.680  -1.578  -0.511  0.00  0.00     0.022 A 
ATOM      9  C8  <0> d   1       4.747  -1.094  -1.206  0.00  0.00     0.124 A 
ATOM     10  N1  <0> d   1       5.749  -0.879  -0.330  0.00  0.00    -0.288 N 
ATOM     11  H1  <0> d   1       6.630  -0.535  -0.548  0.00  0.00     0.188 HD
ATOM     12  N2  <0> d   1       5.303  -1.234   0.949  0.00  0.00    -0.174 NA
BRANCH   8  13
ATOM     13  C4  <0> d   1       2.361  -1.953  -1.076  0.00  0.00    -0.022 A 
ATOM     14  C3  <0> d   1       1.630  -1.029  -1.820  0.00  0.00     0.012 A 
ATOM     15  C2  <0> d   1       0.404  -1.383  -2.345  0.00  0.00     0.001 A 
ATOM     16  C1  <0> d   1      -0.100  -2.654  -2.133  0.00  0.00     0.000 A 
ATOM     17  C6  <0> d   1       0.621  -3.576  -1.395  0.00  0.00     0.001 A 
ATOM     18  C5  <0> d   1       1.848  -3.232  -0.866  0.00  0.00     0.012 A 
ENDBRANCH   8  13
ENDBRANCH   1   7
BRANCH   6  19
ATOM     19  O1  <0> d   1       4.979  -3.494   2.786  0.00  0.00    -0.360 OA
ATOM     20  H11 <0> d   1       5.638  -2.961   3.251  0.00  0.00     0.217 HD
ENDBRANCH   6  19
BRANCH   4  21
ATOM     21  O2  <0> d   1       0.825  -3.410   5.093  0.00  0.00    -0.347 OA
BRANCH  21  22
ATOM     22  C16 <0> d   1      -0.503  -2.885   5.154  0.00  0.00     0.214 C 
BRANCH  22  23
ATOM     23  C17 <0> d   1      -1.218  -3.464   6.347  0.00  0.00    -0.034 A 
ATOM     24  C22 <0> d   1      -1.156  -2.821   7.569  0.00  0.00     0.012 A 
ATOM     25  C21 <0> d   1      -1.816  -3.349   8.663  0.00  0.00     0.037 A 
ATOM     26  C20 <0> d   1      -2.529  -4.527   8.537  0.00  0.00     0.102 A 
ATOM     27  C19 <0> d   1      -2.587  -5.173   7.317  0.00  0.00     0.037 A 
ATOM     28  C18 <0> d   1      -1.931  -4.642   6.222  0.00  0.00     0.012 A 
BRANCH  26  29
ATOM     29  N3  <0> d   1      -3.232  -5.095   9.710  0.00  0.00    -0.116 N 
ATOM     30  O3  <0> d   1      -3.857  -6.124   9.599  0.00  0.00    -0.532 OA
ATOM     31  O4  <0> d   1      -3.182  -4.529  10.777  0.00  0.00    -0.532 OA
ENDBRANCH  26  29
ENDBRANCH  22  23
ENDBRANCH  21  22
ENDBRANCH   4  21
TORSDOF 7
