REMARK  5 active torsions:
REMARK  status: ('A' for Active; 'I' for Inactive)
REMARK    1  A    between atoms: C4_4  and  C7_7 
REMARK    2  A    between atoms: C7_7  and  C8_8 
REMARK    3  A    between atoms: C7_7  and  N1_14 
REMARK    4  A    between atoms: N2_17  and  C18_20 
REMARK    5  A    between atoms: C18_20  and  C19_21 
ROOT
ATOM      1  N1  <0> d   1       4.734   7.871  -3.410  0.00  0.00    -0.055 N 
ATOM      2  C14 <0> d   1       4.645   9.312  -3.134  0.00  0.00     0.266 C 
ATOM      3  C15 <0> d   1       3.804   9.537  -1.876  0.00  0.00     0.300 C 
ATOM      4  N2  <0> d   1       2.467   8.958  -2.073  0.00  0.00     0.096 N 
ATOM      5  C16 <0> d   1       2.556   7.518  -2.349  0.00  0.00     0.300 C 
ATOM      6  C17 <0> d   1       3.398   7.292  -3.607  0.00  0.00     0.266 C 
ATOM      7  H29 <0> d   1       5.189   7.385  -2.534  0.00  0.00     0.281 HD
ENDROOT
BRANCH   4   8
ATOM      8  C18 <0> d   1       1.604   9.220  -0.914  0.00  0.00     0.312 C 
BRANCH   8   9
ATOM      9  C19 <0> d   1       0.167   8.969  -1.291  0.00  0.00    -0.011 A 
ATOM     10  C23 <0> d   1      -0.566   9.919  -2.132  0.00  0.00     0.007 A 
ATOM     11  C22 <0> d   1      -1.899   9.645  -2.456  0.00  0.00     0.101 A 
ATOM     12  C24 <0> d   1       0.059  11.089  -2.606  0.00  0.00     0.016 A 
ATOM     13  O2  <0> d   1      -2.488   8.524  -1.999  0.00  0.00    -0.274 OA
ATOM     14  C27 <0> d   1      -2.610  10.556  -3.266  0.00  0.00     0.009 A 
ATOM     15  C21 <0> d   1      -1.828   7.646  -1.228  0.00  0.00     0.288 A 
ATOM     16  C20 <0> d   1      -0.483   7.856  -0.861  0.00  0.00     0.092 A 
ATOM     17  O1  <0> d   1      -2.402   6.646  -0.838  0.00  0.00    -0.260 OA
ATOM     18  C26 <0> d   1      -1.960  11.725  -3.732  0.00  0.00    -0.023 A 
ATOM     19  C28 <0> d   1      -3.948  10.323  -3.618  0.00  0.00     0.015 A 
ATOM     20  C25 <0> d   1      -0.616  11.969  -3.384  0.00  0.00     0.013 A 
ATOM     21  C31 <0> d   1      -2.671  12.630  -4.537  0.00  0.00     0.012 A 
ATOM     22  C30 <0> d   1      -3.969  12.373  -4.860  0.00  0.00     0.001 A 
ATOM     23  C29 <0> d   1      -4.608  11.226  -4.397  0.00  0.00     0.001 A 
ENDBRANCH   8   9
ENDBRANCH   4   8
BRANCH   1  24
ATOM     24  C7  <0> d   1       5.598   7.609  -4.569  0.00  0.00     0.254 C 
BRANCH  24  25
ATOM     25  C4  <0> d   1       6.997   8.080  -4.269  0.00  0.00    -0.023 A 
ATOM     26  C3  <0> d   1       7.710   8.781  -5.223  0.00  0.00     0.009 A 
ATOM     27  C2  <0> d   1       8.994   9.213  -4.948  0.00  0.00     0.001 A 
ATOM     28  C1  <0> d   1       9.565   8.943  -3.718  0.00  0.00     0.000 A 
ATOM     29  C6  <0> d   1       8.852   8.242  -2.764  0.00  0.00     0.001 A 
ATOM     30  C5  <0> d   1       7.567   7.815  -3.037  0.00  0.00     0.009 A 
ENDBRANCH  24  25
BRANCH  24  31
ATOM     31  C8  <0> d   1       5.616   6.130  -4.857  0.00  0.00    -0.023 A 
ATOM     32  C13 <0> d   1       5.475   5.678  -6.156  0.00  0.00     0.009 A 
ATOM     33  C12 <0> d   1       5.492   4.321  -6.421  0.00  0.00     0.001 A 
ATOM     34  C11 <0> d   1       5.650   3.417  -5.387  0.00  0.00     0.000 A 
ATOM     35  C10 <0> d   1       5.791   3.869  -4.088  0.00  0.00     0.001 A 
ATOM     36  C9  <0> d   1       5.779   5.226  -3.824  0.00  0.00     0.009 A 
ENDBRANCH  24  31
ENDBRANCH   1  24
TORSDOF 5
