REMARK  4 active torsions:
REMARK  status: ('A' for Active; 'I' for Inactive)
REMARK    1  A    between atoms: C4_4  and  O3_27 
REMARK    2  A    between atoms: C5_5  and  C17_19 
REMARK    3  A    between atoms: C10_11  and  C11_12 
REMARK    4  A    between atoms: C17_19  and  N1_20 
ROOT
ATOM      1  C1  <0> d   1      -0.025   5.801  -0.036  0.00  0.00     0.049 C 
ATOM      2  C2  <0> d   1      -0.020   4.294  -0.049  0.00  0.00    -0.042 A 
ATOM      3  C3  <0> d   1       1.164   3.613  -0.087  0.00  0.00     0.045 A 
ATOM      4  C4  <0> d   1       1.171   2.221  -0.101  0.00  0.00     0.076 A 
ATOM      5  C5  <0> d   1      -0.018   1.510  -0.076  0.00  0.00     0.036 A 
ATOM      6  C6  <0> d   1      -1.231   2.187  -0.043  0.00  0.00     0.101 A 
ATOM      7  C7  <0> d   1      -1.225   3.591  -0.024  0.00  0.00     0.057 A 
ATOM      8  C8  <0> d   1      -2.637   4.012   0.019  0.00  0.00     0.219 A 
ATOM      9  O1  <0> d   1      -3.076   5.148   0.041  0.00  0.00    -0.284 OA
ATOM     10  C9  <0> d   1      -3.398   2.752   0.028  0.00  0.00     0.128 A 
ATOM     11  C10 <0> d   1      -4.748   2.630   0.062  0.00  0.00     0.053 C 
ATOM     12  O2  <0> d   1      -2.504   1.735  -0.006  0.00  0.00    -0.305 OA
ENDROOT
BRANCH   5  13
ATOM     13  C17 <0> d   1       0.004   0.004  -0.091  0.00  0.00     0.279 C 
BRANCH  13  14
ATOM     14  N1  <0> d   1       0.049  -0.500   1.288  0.00  0.00    -0.064 N 
ATOM     15  C21 <0> d   1      -0.167  -1.953   1.325  0.00  0.00     0.265 C 
ATOM     16  C20 <0> d   1      -0.193  -2.425   2.781  0.00  0.00     0.299 C 
ATOM     17  N2  <0> d   1       1.075  -2.066   3.432  0.00  0.00     0.087 N 
ATOM     18  C19 <0> d   1       1.290  -0.613   3.395  0.00  0.00     0.299 C 
ATOM     19  C22 <0> d   1       1.119  -2.569   4.812  0.00  0.00     0.310 C 
ATOM     20  C18 <0> d   1       1.316  -0.141   1.939  0.00  0.00     0.265 C 
ATOM     21  H25 <0> d   1      -0.768  -0.021   1.848  0.00  0.00     0.280 HD
ENDBRANCH  13  14
ENDBRANCH   5  13
BRANCH   4  22
ATOM     22  O3  <0> d   1       2.353   1.555  -0.139  0.00  0.00    -0.360 OA
ATOM     23  H24 <0> d   1       2.364   0.455  -0.149  0.00  0.00     0.217 HD
ENDBRANCH   4  22
BRANCH  11  24
ATOM     24  C11 <0> d   1      -5.370   1.303  -0.049  0.00  0.00    -0.034 A 
ATOM     25  C16 <0> d   1      -4.574   0.152  -0.062  0.00  0.00     0.011 A 
ATOM     26  C15 <0> d   1      -5.165  -1.089  -0.166  0.00  0.00     0.001 A 
ATOM     27  C14 <0> d   1      -6.542  -1.198  -0.257  0.00  0.00     0.000 A 
ATOM     28  C13 <0> d   1      -7.337  -0.065  -0.244  0.00  0.00     0.001 A 
ATOM     29  C12 <0> d   1      -6.761   1.183  -0.136  0.00  0.00     0.011 A 
ENDBRANCH  11  24
TORSDOF 4
