REMARK  9 active torsions:
REMARK  status: ('A' for Active; 'I' for Inactive)
REMARK    1  A    between atoms: O1_2  and  C2_3 
REMARK    2  A    between atoms: C2_3  and  C3_5 
REMARK    3  A    between atoms: C6_8  and  C9_11 
REMARK    4  A    between atoms: C15_18  and  O6_32 
REMARK    5  A    between atoms: C16_19  and  C18_22 
REMARK    6  A    between atoms: C18_22  and  N1_23 
REMARK    7  A    between atoms: N2_26  and  C23_29 
REMARK    8  A    between atoms: C23_29  and  C24_30 
REMARK    9  A    between atoms: C24_30  and  O5_31 
ROOT
ATOM      1  C9  <0> d   1       0.849  -6.321   1.260  0.00  0.00     0.053 C 
ATOM      2  C10 <0> d   1       1.552  -6.932   2.244  0.00  0.00     0.127 A 
ATOM      3  C11 <0> d   1       1.793  -8.382   2.372  0.00  0.00     0.218 A 
ATOM      4  O3  <0> d   1       1.411  -9.270   1.631  0.00  0.00    -0.284 OA
ATOM      5  C12 <0> d   1       2.602  -8.514   3.597  0.00  0.00     0.051 A 
ATOM      6  C13 <0> d   1       3.152  -9.609   4.263  0.00  0.00     0.021 A 
ATOM      7  C14 <0> d   1       3.873  -9.418   5.409  0.00  0.00     0.038 A 
ATOM      8  C15 <0> d   1       4.058  -8.133   5.912  0.00  0.00     0.076 A 
ATOM      9  C16 <0> d   1       3.517  -7.036   5.260  0.00  0.00     0.038 A 
ATOM     10  C17 <0> d   1       2.782  -7.213   4.095  0.00  0.00     0.101 A 
ATOM     11  O4  <0> d   1       2.166  -6.324   3.285  0.00  0.00    -0.305 OA
ENDROOT
BRANCH   1  12
ATOM     12  C6  <0> d   1       0.794  -4.853   1.198  0.00  0.00    -0.033 A 
ATOM     13  C5  <0> d   1       1.359  -4.087   2.225  0.00  0.00     0.012 A 
ATOM     14  C4  <0> d   1       1.308  -2.719   2.167  0.00  0.00     0.018 A 
ATOM     15  C3  <0> d   1       0.693  -2.087   1.082  0.00  0.00     0.039 A 
ATOM     16  C8  <0> d   1       0.124  -2.851   0.058  0.00  0.00     0.018 A 
ATOM     17  C7  <0> d   1       0.178  -4.220   0.112  0.00  0.00     0.012 A 
BRANCH  15  18
ATOM     18  C2  <0> d   1       0.639  -0.613   1.020  0.00  0.00     0.292 C 
ATOM     19  O2  <0> d   1       0.101  -0.064   0.080  0.00  0.00    -0.259 OA
BRANCH  18  20
ATOM     20  O1  <0> d   1       1.188   0.123   2.006  0.00  0.00    -0.323 OA
ATOM     21  C1  <0> d   1       1.099   1.544   1.881  0.00  0.00     0.213 C 
ENDBRANCH  18  20
ENDBRANCH  15  18
ENDBRANCH   1  12
BRANCH   9  22
ATOM     22  C18 <0> d   1       3.725  -5.651   5.816  0.00  0.00     0.317 C 
BRANCH  22  23
ATOM     23  N1  <0> d   1       4.951  -5.075   5.248  0.00  0.00     0.096 N 
ATOM     24  C22 <0> d   1       5.064  -3.647   5.578  0.00  0.00     0.303 C 
ATOM     25  C21 <0> d   1       6.309  -3.067   4.902  0.00  0.00     0.302 C 
ATOM     26  N2  <0> d   1       7.497  -3.805   5.355  0.00  0.00     0.093 N 
ATOM     27  C20 <0> d   1       7.384  -5.232   5.025  0.00  0.00     0.302 C 
ATOM     28  C19 <0> d   1       6.139  -5.812   5.700  0.00  0.00     0.303 C 
BRANCH  26  29
ATOM     29  C23 <0> d   1       8.723  -3.228   4.786  0.00  0.00     0.298 C 
BRANCH  29  30
ATOM     30  C24 <0> d   1       8.935  -1.822   5.351  0.00  0.00     0.194 C 
BRANCH  30  31
ATOM     31  O5  <0> d   1       9.173  -1.905   6.757  0.00  0.00    -0.399 OA
ATOM     32  H25 <0> d   1       9.316  -1.048   7.183  0.00  0.00     0.209 HD
ENDBRANCH  30  31
ENDBRANCH  29  30
ENDBRANCH  26  29
ENDBRANCH  22  23
ENDBRANCH   9  22
BRANCH   8  33
ATOM     33  O6  <0> d   1       4.774  -7.953   7.050  0.00  0.00    -0.360 OA
ATOM     34  H26 <0> d   1       5.721  -7.821   6.902  0.00  0.00     0.217 HD
ENDBRANCH   8  33
TORSDOF 9
