REMARK  3 active torsions:
REMARK  status: ('A' for Active; 'I' for Inactive)
REMARK    1  A    between atoms: C3_3  and  C16_21 
REMARK    2  A    between atoms: C9_10  and  C11_13 
REMARK    3  A    between atoms: C11_13  and  N1_14 
ROOT
ATOM      1  C1  <0> d   1       1.223  -2.147  -0.021  0.00  0.00     0.077 C 
ATOM      2  C2  <0> d   1       1.202  -0.640  -0.013  0.00  0.00     0.065 A 
ATOM      3  C3  <0> d   1       0.002  -0.004   0.002  0.00  0.00     0.054 A 
ATOM      4  C4  <0> d   1      -0.018   1.469   0.010  0.00  0.00     0.198 A 
ATOM      5  O1  <0> d   1      -1.065   2.094   0.019  0.00  0.00    -0.286 OA
ATOM      6  C5  <0> d   1       1.289   2.150   0.001  0.00  0.00     0.050 A 
ATOM      7  C6  <0> d   1       1.379   3.543   0.008  0.00  0.00     0.021 A 
ATOM      8  C7  <0> d   1       2.606   4.143   0.000  0.00  0.00     0.041 A 
ATOM      9  C8  <0> d   1       3.766   3.371  -0.015  0.00  0.00     0.118 A 
ATOM     10  C9  <0> d   1       3.693   1.988  -0.022  0.00  0.00     0.039 A 
ATOM     11  C10 <0> d   1       2.453   1.362  -0.014  0.00  0.00     0.100 A 
ATOM     12  O2  <0> d   1       2.364   0.018  -0.020  0.00  0.00    -0.313 OA
ATOM     13  O4  <0> d   1       4.979   3.980  -0.022  0.00  0.00    -0.191 OA
ENDROOT
BRANCH  10  14
ATOM     14  C11 <0> d   1       4.955   1.165  -0.038  0.00  0.00     0.281 C 
BRANCH  14  15
ATOM     15  N1  <0> d   1       5.352   0.905  -1.428  0.00  0.00    -0.046 N 
ATOM     16  C15 <0> d   1       5.738   2.149  -2.107  0.00  0.00     0.402 C 
ATOM     17  O3  <0> d   1       6.192   1.852  -3.429  0.00  0.00    -0.364 OA
ATOM     18  C14 <0> d   1       5.206   1.219  -4.251  0.00  0.00     0.171 C 
ATOM     19  C13 <0> d   1       4.763  -0.087  -3.584  0.00  0.00     0.054 C 
ATOM     20  C12 <0> d   1       4.280   0.217  -2.163  0.00  0.00     0.240 C 
ATOM     21  H20 <0> d   1       6.231   0.243  -1.409  0.00  0.00     0.282 HD
ENDBRANCH  14  15
ENDBRANCH  10  14
BRANCH   3  22
ATOM     22  C16 <0> d   1      -1.264  -0.777   0.009  0.00  0.00    -0.019 A 
ATOM     23  C21 <0> d   1      -2.136  -0.701  -1.075  0.00  0.00     0.014 A 
ATOM     24  C20 <0> d   1      -3.312  -1.423  -1.063  0.00  0.00     0.024 A 
ATOM     25  C19 <0> d   1      -3.626  -2.222   0.023  0.00  0.00     0.034 A 
ATOM     26  C18 <0> d   1      -2.763  -2.301   1.103  0.00  0.00     0.024 A 
ATOM     27 Cl1  <0> d   1      -5.106  -3.128   0.031  0.00  0.00    -0.084 Cl
ATOM     28  C17 <0> d   1      -1.582  -1.587   1.098  0.00  0.00     0.014 A 
ENDBRANCH   3  22
TORSDOF 3
