REMARK  3 active torsions:
REMARK  status: ('A' for Active; 'I' for Inactive)
REMARK    1  A    between atoms: C2_2  and  C3_3 
REMARK    2  A    between atoms: C9_9  and  C12_14 
REMARK    3  A    between atoms: C12_14  and  N1_15 
ROOT
ATOM      1  C3  <0> d   1       2.690   2.121   0.023  0.00  0.00    -0.058 A 
ATOM      2  C4  <0> d   1       2.952   0.760  -0.038  0.00  0.00     0.010 A 
ATOM      3  C5  <0> d   1       1.920  -0.153  -0.095  0.00  0.00     0.039 A 
ATOM      4  C6  <0> d   1       0.604   0.291  -0.093  0.00  0.00     0.090 A 
ATOM      5  C7  <0> d   1       0.342   1.671  -0.032  0.00  0.00     0.006 A 
ATOM      6  C8  <0> d   1       1.403   2.580   0.027  0.00  0.00     0.022 A 
ATOM      7  C9  <0> d   1      -1.050   2.131  -0.024  0.00  0.00    -0.014 A 
ATOM      8  C10 <0> d   1      -2.033   1.198  -0.086  0.00  0.00     0.092 A 
ATOM      9  C11 <0> d   1      -1.698  -0.172  -0.146  0.00  0.00     0.288 A 
ATOM     10  O1  <0> d   1      -2.590  -1.000  -0.198  0.00  0.00    -0.260 OA
ATOM     11  O2  <0> d   1      -0.421  -0.586  -0.148  0.00  0.00    -0.275 OA
ENDROOT
BRANCH   7  12
ATOM     12  C12 <0> d   1      -1.379   3.600   0.041  0.00  0.00     0.274 C 
BRANCH  12  13
ATOM     13  N1  <0> d   1      -1.153   4.092   1.407  0.00  0.00    -0.064 N 
ATOM     14  C16 <0> d   1      -1.097   5.561   1.435  0.00  0.00     0.265 C 
ATOM     15  C15 <0> d   1      -0.782   6.029   2.857  0.00  0.00     0.299 C 
ATOM     16  N2  <0> d   1      -1.814   5.527   3.776  0.00  0.00     0.087 N 
ATOM     17  C14 <0> d   1      -1.870   4.059   3.748  0.00  0.00     0.299 C 
ATOM     18  C17 <0> d   1      -1.588   6.019   5.141  0.00  0.00     0.310 C 
ATOM     19  C13 <0> d   1      -2.185   3.590   2.325  0.00  0.00     0.265 C 
ATOM     20  H23 <0> d   1      -0.180   3.709   1.747  0.00  0.00     0.280 HD
ENDBRANCH  12  13
ENDBRANCH   7  12
BRANCH   1  21
ATOM     21  C2  <0> d   1       3.833   3.101   0.086  0.00  0.00     0.034 C 
ATOM     22  C1  <0> d   1       4.241   3.501  -1.334  0.00  0.00     0.010 C 
ENDBRANCH   1  21
TORSDOF 3
