REMARK  6 active torsions:
REMARK  status: ('A' for Active; 'I' for Inactive)
REMARK    1  A    between atoms: C3_4  and  C4_5 
REMARK    2  A    between atoms: C7_8  and  O2_12 
REMARK    3  A    between atoms: C9_10  and  O1_11 
REMARK    4  A    between atoms: C11_14  and  C14_21 
REMARK    5  A    between atoms: C12_15  and  C13_17 
REMARK    6  A    between atoms: C17_24  and  O3_27 
ROOT
ATOM      1  C1  <0> d   1      -0.024   1.503   0.008  0.00  0.00     0.093 C 
ATOM      2  C2  <0> d   1      -0.000  -0.004   0.001  0.00  0.00     0.123 A 
ATOM      3  N1  <0> d   1       0.168  -0.633  -1.144  0.00  0.00    -0.232 NA
ATOM      4  C3  <0> d   1       0.195  -1.963  -1.194  0.00  0.00     0.085 A 
ATOM      5  C11 <0> d   1       0.041  -2.689   0.005  0.00  0.00     0.038 A 
ATOM      6  C12 <0> d   1      -0.134  -1.972   1.188  0.00  0.00     0.155 A 
ATOM      7  N2  <0> d   1      -0.142  -0.649   1.142  0.00  0.00    -0.228 NA
ENDROOT
BRANCH   4   8
ATOM      8  C4  <0> d   1       0.384  -2.666  -2.481  0.00  0.00     0.027 A 
ATOM      9  C9  <0> d   1      -0.404  -2.327  -3.589  0.00  0.00     0.081 A 
ATOM     10  C8  <0> d   1      -0.217  -2.984  -4.793  0.00  0.00     0.074 A 
ATOM     11  C7  <0> d   1       0.739  -3.983  -4.896  0.00  0.00     0.070 A 
ATOM     12  C6  <0> d   1       1.517  -4.325  -3.796  0.00  0.00     0.038 A 
ATOM     13  C5  <0> d   1       1.344  -3.672  -2.595  0.00  0.00     0.019 A 
BRANCH   9  14
ATOM     14  O1  <0> d   1      -1.343  -1.352  -3.484  0.00  0.00    -0.360 OA
ATOM     15  H17 <0> d   1      -1.016  -0.467  -3.694  0.00  0.00     0.217 HD
ENDBRANCH   9  14
BRANCH  11  16
ATOM     16  O2  <0> d   1       0.917  -4.630  -6.077  0.00  0.00    -0.356 OA
ATOM     17  C10 <0> d   1       1.919  -5.648  -6.115  0.00  0.00     0.210 C 
ENDBRANCH  11  16
ENDBRANCH   4   8
BRANCH   5  18
ATOM     18  C14 <0> d   1       0.063  -4.171   0.007  0.00  0.00    -0.021 A 
ATOM     19  C19 <0> d   1       1.122  -4.853   0.606  0.00  0.00     0.015 A 
ATOM     20  C18 <0> d   1       1.136  -6.232   0.612  0.00  0.00     0.037 A 
ATOM     21  C17 <0> d   1       0.104  -6.941   0.013  0.00  0.00     0.068 A 
ATOM     22  C16 <0> d   1      -0.949  -6.265  -0.589  0.00  0.00     0.037 A 
ATOM     23  C15 <0> d   1      -0.972  -4.886  -0.594  0.00  0.00     0.015 A 
BRANCH  21  24
ATOM     24  O3  <0> d   1       0.123  -8.300   0.016  0.00  0.00    -0.356 OA
ATOM     25  C20 <0> d   1       1.236  -8.931   0.653  0.00  0.00     0.210 C 
ENDBRANCH  21  24
ENDBRANCH   5  18
BRANCH   6  26
ATOM     26  C13 <0> d   1      -0.304  -2.692   2.501  0.00  0.00     0.435 C 
ATOM     27  F1  <0> d   1       0.950  -2.895   3.087  0.00  0.00    -0.165 F 
ATOM     28  F2  <0> d   1      -1.099  -1.922   3.356  0.00  0.00    -0.165 F 
ATOM     29  F3  <0> d   1      -0.920  -3.928   2.277  0.00  0.00    -0.165 F 
ENDBRANCH   6  26
TORSDOF 6
