REMARK  7 active torsions:
REMARK  status: ('A' for Active; 'I' for Inactive)
REMARK    1  A    between atoms: C2_2  and  C4_4 
REMARK    2  A    between atoms: C4_4  and  O1_5 
REMARK    3  A    between atoms: O1_5  and  C5_6 
REMARK    4  A    between atoms: C7_8  and  O2_9 
REMARK    5  A    between atoms: C8_10  and  C9_11 
REMARK    6  A    between atoms: C10_12  and  C13_17 
REMARK    7  A    between atoms: C18_22  and  O3_23 
ROOT
ATOM      1  C9  <0> d   1       0.109  -5.535  -5.537  0.00  0.00     0.083 A 
ATOM      2  C10 <0> d   1      -0.088  -5.010  -6.831  0.00  0.00     0.024 A 
ATOM      3  C11 <0> d   1      -0.164  -5.905  -7.897  0.00  0.00     0.132 A 
ATOM      4  N1  <0> d   1      -0.049  -7.201  -7.658  0.00  0.00    -0.253 NA
ATOM      5  C12 <0> d   1       0.135  -7.656  -6.434  0.00  0.00     0.233 A 
ATOM      6  N2  <0> d   1       0.219  -6.854  -5.393  0.00  0.00    -0.240 NA
ENDROOT
BRANCH   1   7
ATOM      7  C8  <0> d   1       0.197  -4.638  -4.365  0.00  0.00     0.027 A 
ATOM      8  C7  <0> d   1       1.263  -4.761  -3.465  0.00  0.00     0.081 A 
ATOM      9  C6  <0> d   1       1.339  -3.918  -2.369  0.00  0.00     0.074 A 
ATOM     10  C5  <0> d   1       0.362  -2.954  -2.166  0.00  0.00     0.071 A 
ATOM     11  C21 <0> d   1      -0.698  -2.835  -3.056  0.00  0.00     0.038 A 
ATOM     12  C20 <0> d   1      -0.781  -3.666  -4.152  0.00  0.00     0.019 A 
BRANCH   8  13
ATOM     13  O2  <0> d   1       2.218  -5.705  -3.665  0.00  0.00    -0.360 OA
ATOM     14  H20 <0> d   1       2.025  -6.555  -3.247  0.00  0.00     0.217 HD
ENDBRANCH   8  13
BRANCH  10  15
ATOM     15  O1  <0> d   1       0.440  -2.129  -1.090  0.00  0.00    -0.347 OA
BRANCH  15  16
ATOM     16  C4  <0> d   1      -0.602  -1.163  -0.938  0.00  0.00     0.208 C 
BRANCH  16  17
ATOM     17  C2  <0> d   1      -0.349  -0.343   0.301  0.00  0.00    -0.069 C 
ATOM     18  C1  <0> d   1      -1.309   0.751   0.690  0.00  0.00     0.044 C 
ATOM     19  C3  <0> d   1       0.706  -0.582   1.041  0.00  0.00     0.016 C 
ENDBRANCH  16  17
ENDBRANCH  15  16
ENDBRANCH  10  15
ENDBRANCH   1   7
BRANCH   2  20
ATOM     20  C13 <0> d   1      -0.212  -3.549  -7.050  0.00  0.00     0.011 A 
ATOM     21  C18 <0> d   1       0.879  -2.708  -6.810  0.00  0.00     0.079 A 
ATOM     22  C17 <0> d   1       0.756  -1.344  -7.024  0.00  0.00     0.037 A 
ATOM     23  C16 <0> d   1      -0.444  -0.818  -7.462  0.00  0.00     0.003 A 
ATOM     24  C15 <0> d   1      -1.527  -1.647  -7.695  0.00  0.00     0.001 A 
ATOM     25  C14 <0> d   1      -1.417  -3.007  -7.492  0.00  0.00     0.015 A 
BRANCH  21  26
ATOM     26  O3  <0> d   1       2.057  -3.226  -6.374  0.00  0.00    -0.355 OA
ATOM     27  C19 <0> d   1       3.127  -2.306  -6.149  0.00  0.00     0.210 C 
ENDBRANCH  21  26
ENDBRANCH   2  20
TORSDOF 7
