REMARK  7 active torsions:
REMARK  status: ('A' for Active; 'I' for Inactive)
REMARK    1  A    between atoms: C2_2  and  N1_3 
REMARK    2  A    between atoms: N2_6  and  C7_9 
REMARK    3  A    between atoms: C7_9  and  C8_10 
REMARK    4  A    between atoms: C9_11  and  O4_30 
REMARK    5  A    between atoms: C15_18  and  C16_19 
REMARK    6  A    between atoms: C19_22  and  O2_25 
REMARK    7  A    between atoms: O2_25  and  C22_26 
ROOT
ATOM      1  C8  <0> d   1      -4.362  -4.162  -0.907  0.00  0.00     0.038 A 
ATOM      2  C9  <0> d   1      -4.439  -4.841  -2.112  0.00  0.00     0.076 A 
ATOM      3  C10 <0> d   1      -4.725  -6.203  -2.141  0.00  0.00     0.038 A 
ATOM      4  C11 <0> d   1      -4.934  -6.885  -0.976  0.00  0.00     0.021 A 
ATOM      5  C12 <0> d   1      -4.860  -6.215   0.245  0.00  0.00     0.051 A 
ATOM      6  C13 <0> d   1      -4.566  -4.842   0.287  0.00  0.00     0.101 A 
ATOM      7  O1  <0> d   1      -4.542  -4.420   1.570  0.00  0.00    -0.305 OA
ATOM      8  C14 <0> d   1      -4.799  -5.429   2.437  0.00  0.00     0.127 A 
ATOM      9  C15 <0> d   1      -4.847  -5.331   3.790  0.00  0.00     0.053 C 
ATOM     10  C24 <0> d   1      -5.029  -6.646   1.645  0.00  0.00     0.218 A 
ATOM     11  O3  <0> d   1      -5.289  -7.764   2.054  0.00  0.00    -0.284 OA
ENDROOT
BRANCH   9  12
ATOM     12  C16 <0> d   1      -4.748  -4.016   4.435  0.00  0.00    -0.033 A 
ATOM     13  C21 <0> d   1      -4.630  -3.924   5.827  0.00  0.00     0.014 A 
ATOM     14  C20 <0> d   1      -4.532  -2.688   6.426  0.00  0.00     0.037 A 
ATOM     15  C19 <0> d   1      -4.561  -1.533   5.653  0.00  0.00     0.068 A 
ATOM     16  C18 <0> d   1      -4.683  -1.619   4.270  0.00  0.00     0.037 A 
ATOM     17  C17 <0> d   1      -4.776  -2.849   3.660  0.00  0.00     0.014 A 
BRANCH  15  18
ATOM     18  O2  <0> d   1      -4.469  -0.318   6.249  0.00  0.00    -0.352 OA
BRANCH  18  19
ATOM     19  C22 <0> d   1      -4.346  -0.301   7.673  0.00  0.00     0.171 C 
ATOM     20  C23 <0> d   1      -4.256   1.147   8.160  0.00  0.00     0.034 C 
ENDBRANCH  18  19
ENDBRANCH  15  18
ENDBRANCH   9  12
BRANCH   1  21
ATOM     21  C7  <0> d   1      -4.052  -2.687  -0.891  0.00  0.00     0.317 C 
BRANCH  21  22
ATOM     22  N2  <0> d   1      -2.598  -2.494  -0.817  0.00  0.00     0.096 N 
ATOM     23  C4  <0> d   1      -2.242  -1.085  -1.038  0.00  0.00     0.303 C 
ATOM     24  C3  <0> d   1      -0.719  -0.939  -1.032  0.00  0.00     0.302 C 
ATOM     25  N1  <0> d   1      -0.188  -1.419   0.251  0.00  0.00     0.091 N 
ATOM     26  C6  <0> d   1      -0.543  -2.827   0.472  0.00  0.00     0.302 C 
ATOM     27  C5  <0> d   1      -2.067  -2.973   0.466  0.00  0.00     0.303 C 
BRANCH  25  28
ATOM     28  C2  <0> d   1       1.266  -1.225   0.325  0.00  0.00     0.268 C 
ATOM     29  C1  <0> d   1       1.581   0.272   0.341  0.00  0.00     0.037 C 
ENDBRANCH  25  28
ENDBRANCH  21  22
ENDBRANCH   1  21
BRANCH   2  30
ATOM     30  O4  <0> d   1      -4.233  -4.172  -3.275  0.00  0.00    -0.360 OA
ATOM     31  H28 <0> d   1      -3.310  -4.160  -3.564  0.00  0.00     0.217 HD
ENDBRANCH   2  30
TORSDOF 7
