REMARK  1 active torsions:
REMARK  status: ('A' for Active; 'I' for Inactive)
REMARK    1  A    between atoms: C9_10  and  C10_11 
ROOT
ATOM      1  C1  <0> d   1      -1.286  -0.774  -0.089  0.00  0.00     0.054 C 
ATOM      2  C2  <0> d   1       0.008  -0.001  -0.088  0.00  0.00     0.009 A 
ATOM      3  C3  <0> d   1       1.218  -0.675  -0.120  0.00  0.00     0.116 A 
ATOM      4  C4  <0> d   1       2.420   0.027  -0.119  0.00  0.00     0.041 A 
ATOM      5  C5  <0> d   1       2.417   1.393  -0.088  0.00  0.00     0.021 A 
ATOM      6  C6  <0> d   1       1.207   2.085  -0.055  0.00  0.00     0.051 A 
ATOM      7  C7  <0> d   1      -0.013   1.388  -0.055  0.00  0.00     0.099 A 
ATOM      8  O1  <0> d   1      -1.039   2.265  -0.026  0.00  0.00    -0.305 OA
ATOM      9  C8  <0> d   1      -0.605   3.547   0.003  0.00  0.00     0.127 A 
ATOM     10  C9  <0> d   1      -1.385   4.657   0.038  0.00  0.00     0.053 C 
ATOM     11  C16 <0> d   1       0.866   3.519  -0.017  0.00  0.00     0.218 A 
ATOM     12  O2  <0> d   1       1.630   4.467  -0.005  0.00  0.00    -0.284 OA
ATOM     13  O3  <0> d   1       1.232  -2.032  -0.152  0.00  0.00    -0.192 OA
ENDROOT
BRANCH  10  14
ATOM     14  C10 <0> d   1      -2.845   4.532  -0.059  0.00  0.00    -0.033 A 
ATOM     15  C15 <0> d   1      -3.444   3.267  -0.060  0.00  0.00     0.014 A 
ATOM     16  C14 <0> d   1      -4.814   3.157  -0.152  0.00  0.00     0.043 A 
ATOM     17  C13 <0> d   1      -5.600   4.296  -0.243  0.00  0.00     0.116 A 
ATOM     18  C12 <0> d   1      -5.013   5.553  -0.244  0.00  0.00     0.043 A 
ATOM     19  F1  <0> d   1      -6.943   4.181  -0.333  0.00  0.00    -0.206 F 
ATOM     20  C11 <0> d   1      -3.645   5.678  -0.146  0.00  0.00     0.014 A 
ENDBRANCH  10  14
TORSDOF 1
