REMARK  5 active torsions:
REMARK  status: ('A' for Active; 'I' for Inactive)
REMARK    1  A    between atoms: C2_2  and  N1_3 
REMARK    2  A    between atoms: N2_6  and  C7_9 
REMARK    3  A    between atoms: C7_9  and  C8_10 
REMARK    4  A    between atoms: C9_11  and  O3_27 
REMARK    5  A    between atoms: C15_19  and  C17_21 
ROOT
ATOM      1  C8  <0> d   1       1.396   1.986  -0.001  0.00  0.00     0.038 A 
ATOM      2  C9  <0> d   1       2.056   2.225   1.194  0.00  0.00     0.076 A 
ATOM      3  C10 <0> d   1       3.365   2.703   1.194  0.00  0.00     0.038 A 
ATOM      4  C11 <0> d   1       4.010   2.951   0.018  0.00  0.00     0.017 A 
ATOM      5  C12 <0> d   1       3.356   2.721  -1.201  0.00  0.00    -0.000 A 
ATOM      6  C13 <0> d   1       2.036   2.233  -1.207  0.00  0.00     0.100 A 
ATOM      7  O1  <0> d   1       1.391   2.005  -2.372  0.00  0.00    -0.273 OA
ATOM      8  C14 <0> d   1       1.986   2.234  -3.554  0.00  0.00     0.299 A 
ATOM      9  O2  <0> d   1       1.383   2.020  -4.589  0.00  0.00    -0.259 OA
ATOM     10  C15 <0> d   1       3.360   2.742  -3.601  0.00  0.00     0.051 A 
ATOM     11  C16 <0> d   1       4.022   2.977  -2.427  0.00  0.00     0.032 A 
ENDROOT
BRANCH   1  12
ATOM     12  C7  <0> d   1      -0.018   1.465   0.010  0.00  0.00     0.317 C 
BRANCH  12  13
ATOM     13  N2  <0> d   1       0.002  -0.004   0.002  0.00  0.00     0.096 N 
ATOM     14  C4  <0> d   1      -1.339  -0.550   0.250  0.00  0.00     0.303 C 
ATOM     15  C3  <0> d   1      -1.262  -2.078   0.313  0.00  0.00     0.302 C 
ATOM     16  N1  <0> d   1      -0.713  -2.590  -0.951  0.00  0.00     0.091 N 
ATOM     17  C6  <0> d   1       0.628  -2.044  -1.199  0.00  0.00     0.302 C 
ATOM     18  C5  <0> d   1       0.551  -0.516  -1.261  0.00  0.00     0.303 C 
BRANCH  16  19
ATOM     19  C2  <0> d   1      -0.693  -4.059  -0.959  0.00  0.00     0.268 C 
ATOM     20  C1  <0> d   1      -0.356  -4.556  -2.365  0.00  0.00     0.037 C 
ENDBRANCH  16  19
ENDBRANCH  12  13
ENDBRANCH   1  12
BRANCH   2  21
ATOM     21  O3  <0> d   1       1.425   1.988   2.372  0.00  0.00    -0.360 OA
ATOM     22  H24 <0> d   1       1.945   2.176   3.322  0.00  0.00     0.217 HD
ENDBRANCH   2  21
BRANCH  10  23
ATOM     23  C17 <0> d   1       4.022   2.997  -4.902  0.00  0.00    -0.020 A 
ATOM     24  C22 <0> d   1       4.016   2.017  -5.895  0.00  0.00     0.012 A 
ATOM     25  C21 <0> d   1       4.634   2.261  -7.104  0.00  0.00     0.001 A 
ATOM     26  C20 <0> d   1       5.259   3.473  -7.333  0.00  0.00     0.000 A 
ATOM     27  C19 <0> d   1       5.269   4.449  -6.352  0.00  0.00     0.001 A 
ATOM     28  C18 <0> d   1       4.650   4.219  -5.140  0.00  0.00     0.012 A 
ENDBRANCH  10  23
TORSDOF 5
