REMARK  8 active torsions:
REMARK  status: ('A' for Active; 'I' for Inactive)
REMARK    1  A    between atoms: C4_4  and  C7_7 
REMARK    2  A    between atoms: C9_12  and  C10_13 
REMARK    3  A    between atoms: C13_16  and  O2_20 
REMARK    4  A    between atoms: C15_18  and  O1_19 
REMARK    5  A    between atoms: O2_20  and  C16_21 
REMARK    6  A    between atoms: C16_21  and  C17_22 
REMARK    7  A    between atoms: C17_22  and  N3_23 
REMARK    8  A    between atoms: N4_26  and  C22_29 
ROOT
ATOM      1  C10 <0> d   1       2.615  -2.538   1.389  0.00  0.00     0.026 A 
ATOM      2  C11 <0> d   1       2.935  -2.189   2.703  0.00  0.00     0.019 A 
ATOM      3  C12 <0> d   1       2.194  -2.695   3.749  0.00  0.00     0.038 A 
ATOM      4  C13 <0> d   1       1.129  -3.552   3.501  0.00  0.00     0.071 A 
ATOM      5  C14 <0> d   1       0.804  -3.905   2.199  0.00  0.00     0.074 A 
ATOM      6  C15 <0> d   1       1.537  -3.398   1.141  0.00  0.00     0.081 A 
ENDROOT
BRANCH   4   7
ATOM      7  O2  <0> d   1       0.403  -4.048   4.537  0.00  0.00    -0.349 OA
BRANCH   7   8
ATOM      8  C16 <0> d   1       0.792  -3.645   5.852  0.00  0.00     0.203 C 
BRANCH   8   9
ATOM      9  C17 <0> d   1      -0.134  -4.298   6.880  0.00  0.00     0.261 C 
BRANCH   9  10
ATOM     10  N3  <0> d   1       0.034  -5.757   6.833  0.00  0.00    -0.066 N 
ATOM     11  C21 <0> d   1       1.385  -6.107   7.289  0.00  0.00     0.254 C 
ATOM     12  C20 <0> d   1       1.601  -7.615   7.133  0.00  0.00     0.150 C 
ATOM     13  N4  <0> d   1       0.520  -8.318   7.842  0.00  0.00    -0.378 N 
ATOM     14  C19 <0> d   1      -0.867  -7.914   7.565  0.00  0.00     0.150 C 
ATOM     15  C18 <0> d   1      -0.967  -6.391   7.701  0.00  0.00     0.254 C 
ATOM     16  H28 <0> d   1      -0.094  -6.078   5.886  0.00  0.00     0.280 HD
BRANCH  13  17
ATOM     17  C22 <0> d   1       0.803  -9.339   8.753  0.00  0.00     0.030 A 
ATOM     18  C27 <0> d   1       2.120  -9.626   9.090  0.00  0.00     0.032 A 
ATOM     19  C26 <0> d   1       2.397 -10.633   9.994  0.00  0.00     0.044 A 
ATOM     20  C25 <0> d   1       1.364 -11.363  10.557  0.00  0.00     0.116 A 
ATOM     21  C24 <0> d   1       0.051 -11.083  10.218  0.00  0.00     0.044 A 
ATOM     22  F1  <0> d   1       1.637 -12.350  11.437  0.00  0.00    -0.206 F 
ATOM     23  C23 <0> d   1      -0.231 -10.073   9.319  0.00  0.00     0.032 A 
ENDBRANCH  13  17
ENDBRANCH   9  10
ENDBRANCH   8   9
ENDBRANCH   7   8
ENDBRANCH   4   7
BRANCH   6  24
ATOM     24  O1  <0> d   1       1.216  -3.737  -0.135  0.00  0.00    -0.360 OA
ATOM     25  H11 <0> d   1       1.666  -4.531  -0.456  0.00  0.00     0.217 HD
ENDBRANCH   6  24
BRANCH   1  26
ATOM     26  C9  <0> d   1       3.407  -1.999   0.266  0.00  0.00     0.075 A 
ATOM     27  C7  <0> d   1       4.227  -2.723  -0.590  0.00  0.00     0.022 A 
ATOM     28  C8  <0> d   1       4.777  -1.813  -1.510  0.00  0.00     0.153 A 
ATOM     29  N1  <0> d   1       4.329  -0.618  -1.232  0.00  0.00    -0.186 NA
ATOM     30  N2  <0> d   1       3.474  -0.696  -0.127  0.00  0.00    -0.277 N 
ATOM     31  H1  <0> d   1       3.007   0.048   0.285  0.00  0.00     0.189 HD
BRANCH  27  32
ATOM     32  C4  <0> d   1       4.472  -4.184  -0.545  0.00  0.00    -0.022 A 
ATOM     33  C3  <0> d   1       4.234  -4.969  -1.673  0.00  0.00     0.012 A 
ATOM     34  C2  <0> d   1       4.464  -6.328  -1.625  0.00  0.00     0.001 A 
ATOM     35  C1  <0> d   1       4.931  -6.913  -0.462  0.00  0.00     0.000 A 
ATOM     36  C6  <0> d   1       5.169  -6.140   0.660  0.00  0.00     0.001 A 
ATOM     37  C5  <0> d   1       4.943  -4.780   0.625  0.00  0.00     0.012 A 
ENDBRANCH  27  32
ENDBRANCH   1  26
TORSDOF 8
