REMARK  5 active torsions:
REMARK  status: ('A' for Active; 'I' for Inactive)
REMARK    1  A    between atoms: N1_7  and  C7_8 
REMARK    2  A    between atoms: C7_8  and  C8_9 
REMARK    3  A    between atoms: C9_10  and  O3_30 
REMARK    4  A    between atoms: C15_18  and  C17_21 
REMARK    5  A    between atoms: C16_19  and  O2_20 
ROOT
ATOM      1  C8  <0> d   1       2.754  -0.315   2.498  0.00  0.00     0.036 A 
ATOM      2  C9  <0> d   1       2.639   0.482   3.627  0.00  0.00     0.076 A 
ATOM      3  C10 <0> d   1       3.272   0.121   4.814  0.00  0.00     0.038 A 
ATOM      4  C11 <0> d   1       4.017  -1.022   4.881  0.00  0.00     0.020 A 
ATOM      5  C12 <0> d   1       4.143  -1.837   3.751  0.00  0.00     0.033 A 
ATOM      6  C13 <0> d   1       3.498  -1.481   2.553  0.00  0.00     0.101 A 
ATOM      7  O1  <0> d   1       3.611  -2.279   1.462  0.00  0.00    -0.292 OA
ATOM      8  C14 <0> d   1       4.733  -3.038   1.363  0.00  0.00     0.158 C 
ATOM      9  N2  <0> d   1       5.347  -3.187   0.217  0.00  0.00    -0.379 N 
ATOM     10  C15 <0> d   1       5.239  -3.689   2.587  0.00  0.00     0.085 C 
ATOM     11  C16 <0> d   1       4.943  -3.069   3.800  0.00  0.00     0.096 C 
ATOM     12  H17 <0> d   1       5.002  -2.751  -0.578  0.00  0.00     0.158 HD
ATOM     13  H23 <0> d   1       6.148  -3.732   0.163  0.00  0.00     0.158 HD
ENDROOT
BRANCH   1  14
ATOM     14  C7  <0> d   1       2.066   0.083   1.218  0.00  0.00     0.279 C 
BRANCH  14  15
ATOM     15  N1  <0> d   1       0.713  -0.490   1.191  0.00  0.00    -0.063 N 
ATOM     16  C2  <0> d   1       0.002  -0.004   0.002  0.00  0.00     0.184 C 
ATOM     17  C1  <0> d   1      -0.019   1.526   0.010  0.00  0.00     0.040 C 
ATOM     18  C3  <0> d   1      -1.434  -0.533   0.011  0.00  0.00     0.033 C 
ATOM     19  C4  <0> d   1      -1.408  -2.064   0.003  0.00  0.00     0.004 C 
ATOM     20  C5  <0> d   1      -0.600  -2.558   1.206  0.00  0.00     0.028 C 
ATOM     21  C6  <0> d   1       0.805  -1.954   1.152  0.00  0.00     0.235 C 
ATOM     22  H24 <0> d   1       0.213  -0.206   2.020  0.00  0.00     0.280 HD
ENDBRANCH  14  15
ENDBRANCH   1  14
BRANCH   2  23
ATOM     23  O3  <0> d   1       1.905   1.623   3.575  0.00  0.00    -0.360 OA
ATOM     24  H22 <0> d   1       0.973   1.501   3.806  0.00  0.00     0.217 HD
ENDBRANCH   2  23
BRANCH  11  25
ATOM     25  O2  <0> d   1       5.362  -3.591   4.975  0.00  0.00    -0.359 OA
ATOM     26  H25 <0> d   1       5.880  -4.402   4.883  0.00  0.00     0.217 HD
ENDBRANCH  11  25
BRANCH  10  27
ATOM     27  C17 <0> d   1       6.029  -4.929   2.528  0.00  0.00     0.116 A 
ATOM     28  S1  <0> d   1       6.529  -5.872   1.095  0.00  0.00    -0.067 SA
ATOM     29  C23 <0> d   1       7.410  -7.147   1.964  0.00  0.00     0.035 A 
ATOM     30  C18 <0> d   1       7.251  -6.759   3.315  0.00  0.00     0.075 A 
ATOM     31  C22 <0> d   1       8.106  -8.272   1.594  0.00  0.00     0.021 A 
ATOM     32  N3  <0> d   1       6.542  -5.630   3.519  0.00  0.00    -0.239 NA
ATOM     33  C19 <0> d   1       7.852  -7.599   4.282  0.00  0.00     0.033 A 
ATOM     34  C20 <0> d   1       8.544  -8.719   3.902  0.00  0.00     0.002 A 
ATOM     35  C21 <0> d   1       8.680  -9.070   2.567  0.00  0.00     0.002 A 
ENDBRANCH  10  27
TORSDOF 5
