REMARK  7 active torsions:
REMARK  status: ('A' for Active; 'I' for Inactive)
REMARK    1  A    between atoms: C3_3  and  C23_29 
REMARK    2  A    between atoms: C8_9  and  O4_28 
REMARK    3  A    between atoms: C9_10  and  C11_13 
REMARK    4  A    between atoms: C11_13  and  N1_14 
REMARK    5  A    between atoms: N2_17  and  C16_20 
REMARK    6  A    between atoms: C19_23  and  O3_26 
REMARK    7  A    between atoms: C26_32  and  O5_35 
ROOT
ATOM      1  C1  <0> d   1       0.024   1.536   0.060  0.00  0.00     0.077 C 
ATOM      2  C2  <0> d   1       0.032   0.029   0.047  0.00  0.00     0.065 C 
ATOM      3  C3  <0> d   1      -1.157  -0.629   0.057  0.00  0.00     0.054 C 
ATOM      4  C4  <0> d   1      -1.137  -2.104   0.061  0.00  0.00     0.198 C 
ATOM      5  O1  <0> d   1      -2.139  -2.765  -0.155  0.00  0.00    -0.286 OA
ATOM      6  C5  <0> d   1       0.168  -2.732   0.343  0.00  0.00     0.050 A 
ATOM      7  C6  <0> d   1       0.275  -4.093   0.628  0.00  0.00     0.021 A 
ATOM      8  C7  <0> d   1       1.501  -4.635   0.890  0.00  0.00     0.038 A 
ATOM      9  C8  <0> d   1       2.641  -3.834   0.874  0.00  0.00     0.076 A 
ATOM     10  C9  <0> d   1       2.551  -2.482   0.591  0.00  0.00     0.035 A 
ATOM     11  C10 <0> d   1       1.312  -1.915   0.318  0.00  0.00     0.100 A 
ATOM     12  O2  <0> d   1       1.207  -0.604   0.021  0.00  0.00    -0.313 OA
ENDROOT
BRANCH  10  13
ATOM     13  C11 <0> d   1       3.792  -1.628   0.578  0.00  0.00     0.279 C 
BRANCH  13  14
ATOM     14  N1  <0> d   1       4.368  -1.621  -0.774  0.00  0.00    -0.064 N 
ATOM     15  C15 <0> d   1       5.640  -0.889  -0.759  0.00  0.00     0.255 C 
ATOM     16  C14 <0> d   1       6.297  -0.979  -2.140  0.00  0.00     0.150 C 
ATOM     17  N2  <0> d   1       5.335  -0.503  -3.146  0.00  0.00    -0.378 N 
ATOM     18  C13 <0> d   1       3.977  -1.070  -3.128  0.00  0.00     0.150 C 
ATOM     19  C12 <0> d   1       3.430  -0.975  -1.700  0.00  0.00     0.255 C 
ATOM     20  H31 <0> d   1       4.532  -2.571  -1.073  0.00  0.00     0.280 HD
BRANCH  17  21
ATOM     21  C16 <0> d   1       5.700   0.460  -4.092  0.00  0.00     0.030 A 
ATOM     22  C21 <0> d   1       4.816   0.810  -5.105  0.00  0.00     0.032 A 
ATOM     23  C20 <0> d   1       5.176   1.765  -6.035  0.00  0.00     0.039 A 
ATOM     24  C19 <0> d   1       6.424   2.367  -5.965  0.00  0.00     0.068 A 
ATOM     25  C18 <0> d   1       7.309   2.015  -4.957  0.00  0.00     0.039 A 
ATOM     26  C17 <0> d   1       6.949   1.064  -4.023  0.00  0.00     0.032 A 
BRANCH  24  27
ATOM     27  O3  <0> d   1       6.779   3.303  -6.885  0.00  0.00    -0.356 OA
ATOM     28  C22 <0> d   1       5.819   3.618  -7.895  0.00  0.00     0.210 C 
ENDBRANCH  24  27
ENDBRANCH  17  21
ENDBRANCH  13  14
ENDBRANCH  10  13
BRANCH   9  29
ATOM     29  O4  <0> d   1       3.853  -4.385   1.140  0.00  0.00    -0.360 OA
ATOM     30  H23 <0> d   1       4.314  -4.718   0.358  0.00  0.00     0.217 HD
ENDBRANCH   9  29
BRANCH   3  31
ATOM     31  C23 <0> d   1      -2.440   0.116   0.063  0.00  0.00    -0.019 A 
ATOM     32  C28 <0> d   1      -3.307   0.023  -1.024  0.00  0.00     0.015 A 
ATOM     33  C27 <0> d   1      -4.502   0.711  -1.012  0.00  0.00     0.037 A 
ATOM     34  C26 <0> d   1      -4.836   1.507   0.075  0.00  0.00     0.068 A 
ATOM     35  C25 <0> d   1      -3.971   1.607   1.157  0.00  0.00     0.037 A 
ATOM     36  C24 <0> d   1      -2.778   0.915   1.154  0.00  0.00     0.015 A 
BRANCH  34  37
ATOM     37  O5  <0> d   1      -6.011   2.189   0.081  0.00  0.00    -0.356 OA
ATOM     38  C29 <0> d   1      -6.853   2.041  -1.064  0.00  0.00     0.210 C 
ENDBRANCH  34  37
ENDBRANCH   3  31
TORSDOF 7
