REMARK  3 active torsions:
REMARK  status: ('A' for Active; 'I' for Inactive)
REMARK    1  A    between atoms: C6_6  and  C7_7 
REMARK    2  A    between atoms: C15_17  and  C16_18 
REMARK    3  A    between atoms: C16_18  and  N1_19 
ROOT
ATOM      1  C7  <0> d   1      -3.680  -0.785   0.018  0.00  0.00     0.048 A 
ATOM      2  C8  <0> d   1      -3.900  -1.773  -0.887  0.00  0.00     0.159 A 
ATOM      3  O1  <0> d   1      -5.032  -2.481  -0.917  0.00  0.00    -0.320 OA
ATOM      4  C9  <0> d   1      -6.057  -2.274  -0.066  0.00  0.00     0.100 A 
ATOM      5  C10 <0> d   1      -5.969  -1.277   0.922  0.00  0.00     0.050 A 
ATOM      6  C11 <0> d   1      -4.735  -0.474   0.997  0.00  0.00     0.197 A 
ATOM      7  O2  <0> d   1      -4.596   0.406   1.829  0.00  0.00    -0.286 OA
ATOM      8  C12 <0> d   1      -7.028  -1.062   1.804  0.00  0.00     0.021 A 
ATOM      9  C13 <0> d   1      -8.157  -1.824   1.706  0.00  0.00     0.041 A 
ATOM     10  C14 <0> d   1      -8.255  -2.815   0.731  0.00  0.00     0.118 A 
ATOM     11  C15 <0> d   1      -7.212  -3.041  -0.151  0.00  0.00     0.039 A 
ATOM     12  O3  <0> d   1      -9.382  -3.565   0.645  0.00  0.00    -0.191 OA
ENDROOT
BRANCH   1  13
ATOM     13  C6  <0> d   1      -2.403  -0.029   0.016  0.00  0.00    -0.017 A 
ATOM     14  C1  <0> d   1      -2.416   1.364   0.027  0.00  0.00     0.015 A 
ATOM     15  C2  <0> d   1      -1.228   2.065   0.019  0.00  0.00     0.040 A 
ATOM     16  C3  <0> d   1      -0.017   1.387   0.010  0.00  0.00     0.102 A 
ATOM     17  O5  <0> d   1       1.144   2.099   0.002  0.00  0.00    -0.346 OA
ATOM     18  C4  <0> d   1       0.002  -0.004   0.002  0.00  0.00     0.102 A 
ATOM     19  C23 <0> d   1       2.335   1.391   0.365  0.00  0.00     0.202 C 
ATOM     20  C22 <0> d   1       2.347   0.054  -0.387  0.00  0.00     0.202 C 
ATOM     21  O4  <0> d   1       1.181  -0.685  -0.007  0.00  0.00    -0.346 OA
ATOM     22  C5  <0> d   1      -1.188  -0.711   0.004  0.00  0.00     0.052 A 
ENDBRANCH   1  13
BRANCH  11  23
ATOM     23  C16 <0> d   1      -7.330  -4.115  -1.202  0.00  0.00     0.279 C 
BRANCH  23  24
ATOM     24  N1  <0> d   1      -6.822  -5.384  -0.663  0.00  0.00    -0.067 N 
ATOM     25  C21 <0> d   1      -7.136  -6.500  -1.564  0.00  0.00     0.235 C 
ATOM     26  C20 <0> d   1      -6.724  -7.819  -0.906  0.00  0.00     0.028 C 
ATOM     27  C19 <0> d   1      -5.223  -7.787  -0.606  0.00  0.00     0.003 C 
ATOM     28  C18 <0> d   1      -4.916  -6.588   0.294  0.00  0.00     0.028 C 
ATOM     29  C17 <0> d   1      -5.380  -5.304  -0.398  0.00  0.00     0.235 C 
ATOM     30  H23 <0> d   1      -7.329  -5.573   0.295  0.00  0.00     0.280 HD
ENDBRANCH  23  24
ENDBRANCH  11  23
TORSDOF 3
