REMARK  10 active torsions:
REMARK  status: ('A' for Active; 'I' for Inactive)
REMARK    1  A    between atoms: O1_2  and  C2_3 
REMARK    2  A    between atoms: C5_6  and  O2_9 
REMARK    3  A    between atoms: O2_9  and  C8_10 
REMARK    4  A    between atoms: C13_16  and  O6_35 
REMARK    5  A    between atoms: C14_17  and  C18_25 
REMARK    6  A    between atoms: C16_20  and  C17_21 
REMARK    7  A    between atoms: C18_25  and  N1_26 
REMARK    8  A    between atoms: N2_29  and  C23_32 
REMARK    9  A    between atoms: C23_32  and  C24_33 
REMARK   10  A    between atoms: C24_33  and  O5_34 
ROOT
ATOM      1  C8  <0> d   1      -4.759  -3.922   0.024  0.00  0.00     0.165 A 
ATOM      2  C9  <0> d   1      -5.938  -4.721  -0.008  0.00  0.00     0.221 A 
ATOM      3  O3  <0> d   1      -7.043  -4.217  -0.116  0.00  0.00    -0.284 OA
ATOM      4  C10 <0> d   1      -5.766  -6.180   0.095  0.00  0.00     0.052 A 
ATOM      5  C11 <0> d   1      -6.861  -7.045   0.073  0.00  0.00     0.021 A 
ATOM      6  C12 <0> d   1      -6.661  -8.392   0.171  0.00  0.00     0.038 A 
ATOM      7  C13 <0> d   1      -5.372  -8.907   0.292  0.00  0.00     0.076 A 
ATOM      8  C14 <0> d   1      -4.275  -8.062   0.316  0.00  0.00     0.038 A 
ATOM      9  C15 <0> d   1      -4.461  -6.690   0.218  0.00  0.00     0.101 A 
ATOM     10  O4  <0> d   1      -3.410  -5.845   0.237  0.00  0.00    -0.301 OA
ATOM     11  C16 <0> d   1      -3.556  -4.517   0.139  0.00  0.00     0.197 A 
ENDROOT
BRANCH   8  12
ATOM     12  C18 <0> d   1      -2.885  -8.630   0.448  0.00  0.00     0.317 C 
BRANCH  12  13
ATOM     13  N1  <0> d   1      -2.338  -8.900  -0.888  0.00  0.00     0.096 N 
ATOM     14  C22 <0> d   1      -0.907  -9.229  -0.814  0.00  0.00     0.300 C 
ATOM     15  C21 <0> d   1      -0.363  -9.445  -2.228  0.00  0.00     0.265 C 
ATOM     16  N2  <0> d   1      -1.101 -10.538  -2.875  0.00  0.00    -0.066 N 
ATOM     17  C20 <0> d   1      -2.524 -10.184  -2.964  0.00  0.00     0.265 C 
ATOM     18  H26 <0> d   1      -0.998 -11.382  -2.332  0.00  0.00     0.280 HD
ATOM     19  C19 <0> d   1      -3.086  -9.974  -1.556  0.00  0.00     0.300 C 
BRANCH  16  20
ATOM     20  C23 <0> d   1      -0.566 -10.757  -4.226  0.00  0.00     0.260 C 
BRANCH  20  21
ATOM     21  C24 <0> d   1       0.880 -11.245  -4.128  0.00  0.00     0.192 C 
BRANCH  21  22
ATOM     22  O5  <0> d   1       0.908 -12.527  -3.498  0.00  0.00    -0.399 OA
ATOM     23  H24 <0> d   1       1.796 -12.899  -3.402  0.00  0.00     0.209 HD
ENDBRANCH  21  22
ENDBRANCH  20  21
ENDBRANCH  16  20
ENDBRANCH  12  13
ENDBRANCH   8  12
BRANCH   7  24
ATOM     24  O6  <0> d   1      -5.189 -10.249   0.389  0.00  0.00    -0.360 OA
ATOM     25  H25 <0> d   1      -5.076 -10.692  -0.463  0.00  0.00     0.217 HD
ENDBRANCH   7  24
BRANCH  11  26
ATOM     26  C17 <0> d   1      -2.322  -3.652   0.164  0.00  0.00     0.442 C 
ATOM     27  F1  <0> d   1      -2.697  -2.306   0.229  0.00  0.00    -0.164 F 
ATOM     28  F2  <0> d   1      -1.549  -3.975   1.285  0.00  0.00    -0.164 F 
ATOM     29  F3  <0> d   1      -1.574  -3.873  -0.997  0.00  0.00    -0.164 F 
ENDBRANCH  11  26
BRANCH   1  30
ATOM     30  O2  <0> d   1      -4.848  -2.566  -0.068  0.00  0.00    -0.304 OA
BRANCH  30  31
ATOM     31  C5  <0> d   1      -5.441  -1.895   0.955  0.00  0.00     0.076 A 
ATOM     32  C4  <0> d   1      -5.659  -0.529   0.854  0.00  0.00     0.040 A 
ATOM     33  C3  <0> d   1      -6.262   0.153   1.892  0.00  0.00     0.039 A 
ATOM     34  C2  <0> d   1      -6.651  -0.528   3.036  0.00  0.00     0.068 A 
ATOM     35  C7  <0> d   1      -6.429  -1.893   3.139  0.00  0.00     0.039 A 
ATOM     36  C6  <0> d   1      -5.830  -2.576   2.099  0.00  0.00     0.040 A 
BRANCH  34  37
ATOM     37  O1  <0> d   1      -7.246   0.143   4.058  0.00  0.00    -0.356 OA
ATOM     38  C1  <0> d   1      -7.444   1.548   3.884  0.00  0.00     0.210 C 
ENDBRANCH  34  37
ENDBRANCH  30  31
ENDBRANCH   1  30
TORSDOF 10
