REMARK  10 active torsions:
REMARK  status: ('A' for Active; 'I' for Inactive)
REMARK    1  A    between atoms: C2_2  and  O1_3 
REMARK    2  A    between atoms: O1_3  and  C3_4 
REMARK    3  A    between atoms: C3_4  and  C4_6 
REMARK    4  A    between atoms: C7_9  and  O3_12 
REMARK    5  A    between atoms: O3_12  and  C10_13 
REMARK    6  A    between atoms: C12_18  and  C13_19 
REMARK    7  A    between atoms: C16_22  and  O5_26 
REMARK    8  A    between atoms: O5_26  and  C19_27 
REMARK    9  A    between atoms: C19_27  and  C20_28 
REMARK       I    between atoms: C20_28  and  N3_30 
REMARK   10  A    between atoms: N3_30  and  N4_31 
ROOT
ATOM      1  C10 <0> d   1       3.520  -5.229  -5.928  0.00  0.00     0.124 A 
ATOM      2  C11 <0> d   1       3.035  -6.143  -5.054  0.00  0.00     0.149 A 
ATOM      3  N1  <0> d   1       3.423  -7.374  -5.481  0.00  0.00    -0.286 N 
ATOM      4  H1  <0> d   1       3.218  -8.218  -5.049  0.00  0.00     0.188 HD
ATOM      5  N2  <0> d   1       4.169  -7.211  -6.655  0.00  0.00    -0.172 NA
ATOM      6  C12 <0> d   1       4.226  -5.925  -6.932  0.00  0.00     0.125 A 
ENDROOT
BRANCH   6   7
ATOM      7  C13 <0> d   1       4.916  -5.313  -8.094  0.00  0.00     0.034 A 
ATOM      8  C18 <0> d   1       5.583  -6.123  -9.019  0.00  0.00     0.122 A 
ATOM      9  C17 <0> d   1       6.220  -5.547 -10.105  0.00  0.00     0.077 A 
ATOM     10  O4  <0> d   1       5.600  -7.471  -8.856  0.00  0.00    -0.191 OA
ATOM     11  C16 <0> d   1       6.206  -4.169 -10.267  0.00  0.00     0.072 A 
ATOM     12  C15 <0> d   1       5.549  -3.364  -9.345  0.00  0.00     0.038 A 
ATOM     13  C14 <0> d   1       4.907  -3.930  -8.264  0.00  0.00     0.020 A 
BRANCH  11  14
ATOM     14  O5  <0> d   1       6.837  -3.606 -11.330  0.00  0.00    -0.342 OA
BRANCH  14  15
ATOM     15  C19 <0> d   1       7.494  -4.492 -12.239  0.00  0.00     0.279 C 
BRANCH  15  16
ATOM     16  C20 <0> d   1       8.132  -3.693 -13.346  0.00  0.00     0.255 C 
ATOM     17  O6  <0> d   1       8.034  -2.484 -13.356  0.00  0.00    -0.270 OA
ATOM     18  N3  <0> d   1       8.811  -4.322 -14.326  0.00  0.00    -0.292 N 
ATOM     19  H17 <0> d   1       8.889  -5.289 -14.318  0.00  0.00     0.183 HD
BRANCH  18  20
ATOM     20  N4  <0> d   1       9.390  -3.598 -15.329  0.00  0.00    -0.247 NA
ATOM     21  H18 <0> d   1       9.861  -4.202 -15.986  0.00  0.00     0.143 HD
ATOM     22  H19 <0> d   1       8.709  -3.018 -15.796  0.00  0.00     0.143 HD
ENDBRANCH  18  20
ENDBRANCH  15  16
ENDBRANCH  14  15
ENDBRANCH  11  14
ENDBRANCH   6   7
BRANCH   1  23
ATOM     23  O3  <0> d   1       3.350  -3.880  -5.854  0.00  0.00    -0.307 OA
BRANCH  23  24
ATOM     24  C7  <0> d   1       2.741  -3.374  -4.752  0.00  0.00     0.076 A 
ATOM     25  C6  <0> d   1       3.392  -3.405  -3.524  0.00  0.00     0.038 A 
ATOM     26  C5  <0> d   1       2.778  -2.892  -2.404  0.00  0.00     0.020 A 
ATOM     27  C4  <0> d   1       1.498  -2.340  -2.502  0.00  0.00     0.039 A 
ATOM     28  C9  <0> d   1       0.844  -2.315  -3.738  0.00  0.00     0.020 A 
ATOM     29  C8  <0> d   1       1.468  -2.825  -4.854  0.00  0.00     0.038 A 
BRANCH  27  30
ATOM     30  C3  <0> d   1       0.836  -1.789  -1.305  0.00  0.00     0.293 C 
ATOM     31  O2  <0> d   1      -0.279  -1.314  -1.392  0.00  0.00    -0.259 OA
BRANCH  30  32
ATOM     32  O1  <0> d   1       1.468  -1.813  -0.115  0.00  0.00    -0.318 OA
BRANCH  32  33
ATOM     33  C2  <0> d   1       0.767  -1.263   1.002  0.00  0.00     0.174 C 
ATOM     34  C1  <0> d   1       1.637  -1.379   2.256  0.00  0.00     0.034 C 
ENDBRANCH  32  33
ENDBRANCH  30  32
ENDBRANCH  27  30
ENDBRANCH  23  24
ENDBRANCH   1  23
TORSDOF 10
