REMARK  8 active torsions:
REMARK  status: ('A' for Active; 'I' for Inactive)
REMARK    1  A    between atoms: C2_2  and  N1_3 
REMARK    2  A    between atoms: C4_5  and  C11_12 
REMARK    3  A    between atoms: C17_19  and  O4_33 
REMARK    4  A    between atoms: C18_20  and  C20_23 
REMARK    5  A    between atoms: C20_23  and  N2_24 
REMARK    6  A    between atoms: N3_27  and  C25_30 
REMARK    7  A    between atoms: C25_30  and  C26_31 
REMARK    8  A    between atoms: C26_31  and  O3_32 
ROOT
ATOM      1  C11 <0> d   1      -2.586   0.950  -0.296  0.00  0.00     0.055 C 
ATOM      2  C12 <0> d   1      -2.784  -0.398  -0.259  0.00  0.00     0.128 A 
ATOM      3  C13 <0> d   1      -4.045  -1.052  -0.270  0.00  0.00     0.218 A 
ATOM      4  O1  <0> d   1      -5.149  -0.533  -0.313  0.00  0.00    -0.284 OA
ATOM      5  C14 <0> d   1      -3.734  -2.491  -0.221  0.00  0.00     0.051 A 
ATOM      6  C15 <0> d   1      -4.519  -3.643  -0.207  0.00  0.00     0.021 A 
ATOM      7  C16 <0> d   1      -3.924  -4.872  -0.150  0.00  0.00     0.038 A 
ATOM      8  C17 <0> d   1      -2.536  -4.976  -0.105  0.00  0.00     0.076 A 
ATOM      9  C18 <0> d   1      -1.743  -3.840  -0.118  0.00  0.00     0.038 A 
ATOM     10  C19 <0> d   1      -2.333  -2.585  -0.176  0.00  0.00     0.101 A 
ATOM     11  O2  <0> d   1      -1.813  -1.339  -0.200  0.00  0.00    -0.305 OA
ENDROOT
BRANCH   1  12
ATOM     12  C4  <0> d   1      -1.228   1.490  -0.273  0.00  0.00    -0.005 A 
ATOM     13  C3  <0> d   1      -0.054   0.771  -0.216  0.00  0.00     0.103 A 
ATOM     14  N1  <0> d   1       1.000   1.625  -0.217  0.00  0.00    -0.356 N 
ATOM     15  C6  <0> d   1       0.563   2.933  -0.269  0.00  0.00     0.045 A 
ATOM     16  C5  <0> d   1      -0.841   2.913  -0.304  0.00  0.00     0.002 A 
ATOM     17  C7  <0> d   1       1.228   4.154  -0.292  0.00  0.00     0.030 A 
ATOM     18  C10 <0> d   1      -1.555   4.107  -0.361  0.00  0.00     0.014 A 
ATOM     19  C9  <0> d   1      -0.878   5.307  -0.382  0.00  0.00     0.001 A 
ATOM     20  C8  <0> d   1       0.508   5.329  -0.348  0.00  0.00     0.002 A 
BRANCH  14  21
ATOM     21  C2  <0> d   1       2.406   1.216  -0.168  0.00  0.00     0.124 C 
ATOM     22  C1  <0> d   1       2.894   1.240   1.282  0.00  0.00     0.027 C 
ENDBRANCH  14  21
ENDBRANCH   1  12
BRANCH   9  23
ATOM     23  C20 <0> d   1      -0.242  -3.966  -0.068  0.00  0.00     0.317 C 
BRANCH  23  24
ATOM     24  N2  <0> d   1       0.203  -3.963   1.332  0.00  0.00     0.096 N 
ATOM     25  C24 <0> d   1       1.625  -4.321   1.433  0.00  0.00     0.303 C 
ATOM     26  C23 <0> d   1       2.029  -4.384   2.908  0.00  0.00     0.302 C 
ATOM     27  N3  <0> d   1       1.770  -3.083   3.540  0.00  0.00     0.093 N 
ATOM     28  C22 <0> d   1       0.348  -2.726   3.439  0.00  0.00     0.302 C 
ATOM     29  C21 <0> d   1      -0.056  -2.663   1.964  0.00  0.00     0.303 C 
BRANCH  27  30
ATOM     30  C25 <0> d   1       2.215  -3.080   4.940  0.00  0.00     0.298 C 
BRANCH  30  31
ATOM     31  C26 <0> d   1       1.213  -3.858   5.796  0.00  0.00     0.194 C 
BRANCH  31  32
ATOM     32  O3  <0> d   1       1.237  -5.237   5.422  0.00  0.00    -0.399 OA
ATOM     33  H28 <0> d   1       0.579  -5.956   5.931  0.00  0.00     0.209 HD
ENDBRANCH  31  32
ENDBRANCH  30  31
ENDBRANCH  27  30
ENDBRANCH  23  24
ENDBRANCH   9  23
BRANCH   8  34
ATOM     34  O4  <0> d   1      -1.954  -6.202  -0.048  0.00  0.00    -0.360 OA
ATOM     35  H29 <0> d   1      -0.859  -6.290  -0.013  0.00  0.00     0.217 HD
ENDBRANCH   8  34
TORSDOF 8
