REMARK  10 active torsions:
REMARK  status: ('A' for Active; 'I' for Inactive)
REMARK    1  A    between atoms: O1_2  and  C2_3 
REMARK    2  A    between atoms: C5_6  and  C8_9 
REMARK    3  A    between atoms: C10_14  and  C11_15 
REMARK    4  A    between atoms: C14_18  and  O3_22 
REMARK    5  A    between atoms: C16_20  and  O2_21 
REMARK    6  A    between atoms: O3_22  and  C17_23 
REMARK    7  A    between atoms: C17_23  and  C18_24 
REMARK    8  A    between atoms: C18_24  and  N3_25 
REMARK    9  A    between atoms: N4_28  and  C23_31 
REMARK   10  A    between atoms: C23_31  and  C24_32 
ROOT
ATOM      1  C11 <0> d   1      -3.957  -4.453  -1.446  0.00  0.00     0.026 A 
ATOM      2  C12 <0> d   1      -4.243  -4.088  -2.763  0.00  0.00     0.019 A 
ATOM      3  C13 <0> d   1      -3.501  -4.612  -3.799  0.00  0.00     0.038 A 
ATOM      4  C14 <0> d   1      -2.468  -5.504  -3.538  0.00  0.00     0.071 A 
ATOM      5  C15 <0> d   1      -2.177  -5.873  -2.233  0.00  0.00     0.074 A 
ATOM      6  C16 <0> d   1      -2.912  -5.348  -1.184  0.00  0.00     0.081 A 
ENDROOT
BRANCH   4   7
ATOM      7  O3  <0> d   1      -1.741  -6.017  -4.564  0.00  0.00    -0.349 OA
BRANCH   7   8
ATOM      8  C17 <0> d   1      -2.093  -5.596  -5.883  0.00  0.00     0.203 C 
BRANCH   8   9
ATOM      9  C18 <0> d   1      -1.171  -6.273  -6.899  0.00  0.00     0.261 C 
BRANCH   9  10
ATOM     10  N3  <0> d   1      -1.384  -7.726  -6.861  0.00  0.00    -0.066 N 
ATOM     11  C22 <0> d   1      -2.740  -8.035  -7.334  0.00  0.00     0.265 C 
ATOM     12  C21 <0> d   1      -2.969  -9.547  -7.277  0.00  0.00     0.300 C 
ATOM     13  N4  <0> d   1      -1.972 -10.223  -8.119  0.00  0.00     0.095 N 
ATOM     14  C20 <0> d   1      -0.608  -9.903  -7.672  0.00  0.00     0.300 C 
ATOM     15  C19 <0> d   1      -0.399  -8.388  -7.726  0.00  0.00     0.265 C 
ATOM     16  H33 <0> d   1      -1.275  -8.057  -5.914  0.00  0.00     0.280 HD
BRANCH  13  17
ATOM     17  C23 <0> d   1      -2.194 -11.675  -8.135  0.00  0.00     0.311 C 
BRANCH  17  18
ATOM     18  C24 <0> d   1      -3.500 -11.976  -8.824  0.00  0.00    -0.030 A 
ATOM     19  C29 <0> d   1      -3.528 -12.189 -10.189  0.00  0.00     0.009 A 
ATOM     20  C28 <0> d   1      -4.725 -12.469 -10.820  0.00  0.00     0.001 A 
ATOM     21  C27 <0> d   1      -5.896 -12.527 -10.087  0.00  0.00     0.000 A 
ATOM     22  C26 <0> d   1      -5.869 -12.308  -8.723  0.00  0.00     0.001 A 
ATOM     23  C25 <0> d   1      -4.671 -12.032  -8.091  0.00  0.00     0.009 A 
ENDBRANCH  17  18
ENDBRANCH  13  17
ENDBRANCH   9  10
ENDBRANCH   8   9
ENDBRANCH   7   8
ENDBRANCH   4   7
BRANCH   6  24
ATOM     24  O2  <0> d   1      -2.624  -5.704   0.095  0.00  0.00    -0.360 OA
ATOM     25  H13 <0> d   1      -3.105  -6.484   0.404  0.00  0.00     0.217 HD
ENDBRANCH   6  24
BRANCH   1  26
ATOM     26  C10 <0> d   1      -4.750  -3.893  -0.334  0.00  0.00     0.075 A 
ATOM     27  C8  <0> d   1      -5.605  -4.594   0.507  0.00  0.00     0.022 A 
ATOM     28  C9  <0> d   1      -6.143  -3.670   1.421  0.00  0.00     0.153 A 
ATOM     29  N1  <0> d   1      -5.654  -2.488   1.153  0.00  0.00    -0.186 NA
ATOM     30  N2  <0> d   1      -4.784  -2.588   0.062  0.00  0.00    -0.277 N 
ATOM     31  H1  <0> d   1      -4.287  -1.858  -0.340  0.00  0.00     0.189 HD
BRANCH  27  32
ATOM     32  C5  <0> d   1      -5.893  -6.047   0.454  0.00  0.00    -0.022 A 
ATOM     33  C4  <0> d   1      -5.691  -6.841   1.582  0.00  0.00     0.015 A 
ATOM     34  C3  <0> d   1      -5.960  -8.193   1.530  0.00  0.00     0.037 A 
ATOM     35  C2  <0> d   1      -6.431  -8.763   0.356  0.00  0.00     0.068 A 
ATOM     36  C7  <0> d   1      -6.628  -7.977  -0.771  0.00  0.00     0.037 A 
ATOM     37  C6  <0> d   1      -6.366  -6.623  -0.724  0.00  0.00     0.015 A 
BRANCH  35  38
ATOM     38  O1  <0> d   1      -6.696 -10.095   0.307  0.00  0.00    -0.356 OA
ATOM     39  C1  <0> d   1      -6.471 -10.845   1.503  0.00  0.00     0.210 C 
ENDBRANCH  35  38
ENDBRANCH  27  32
ENDBRANCH   1  26
TORSDOF 10
