REMARK  7 active torsions:
REMARK  status: ('A' for Active; 'I' for Inactive)
REMARK    1  A    between atoms: C3_3  and  C19_25 
REMARK    2  A    between atoms: C4_4  and  C5_8 
REMARK    3  A    between atoms: C8_11  and  O2_15 
REMARK    4  A    between atoms: C10_13  and  O1_14 
REMARK    5  A    between atoms: O2_15  and  C11_16 
REMARK    6  A    between atoms: C11_16  and  C12_17 
REMARK    7  A    between atoms: C12_17  and  N3_33 
ROOT
ATOM      1  C5  <0> d   1       1.669   1.252   6.998  0.00  0.00     0.026 A 
ATOM      2  C6  <0> d   1       0.548   0.475   6.711  0.00  0.00     0.019 A 
ATOM      3  C7  <0> d   1      -0.286   0.826   5.671  0.00  0.00     0.038 A 
ATOM      4  C8  <0> d   1      -0.014   1.954   4.907  0.00  0.00     0.071 A 
ATOM      5  C9  <0> d   1       1.102   2.730   5.183  0.00  0.00     0.074 A 
ATOM      6  C10 <0> d   1       1.942   2.388   6.229  0.00  0.00     0.081 A 
ENDROOT
BRANCH   1   7
ATOM      7  C4  <0> d   1       2.568   0.876   8.115  0.00  0.00     0.076 A 
ATOM      8  C3  <0> d   1       2.166   0.506   9.423  0.00  0.00     0.029 A 
ATOM      9  C2  <0> d   1       3.294   0.238  10.138  0.00  0.00     0.064 A 
ATOM     10  C1  <0> d   1       3.349  -0.195  11.580  0.00  0.00     0.073 C 
ATOM     11  N2  <0> d   1       4.354   0.428   9.325  0.00  0.00    -0.178 NA
ATOM     12  N1  <0> d   1       3.881   0.821   8.067  0.00  0.00    -0.276 N 
ATOM     13  H1  <0> d   1       4.447   1.025   7.268  0.00  0.00     0.189 HD
BRANCH   8  14
ATOM     14  C19 <0> d   1       0.771   0.425   9.922  0.00  0.00    -0.021 A 
ATOM     15  C24 <0> d   1       0.225  -0.807  10.276  0.00  0.00     0.014 A 
ATOM     16  C23 <0> d   1      -1.072  -0.877  10.740  0.00  0.00     0.024 A 
ATOM     17  C22 <0> d   1      -1.832   0.275  10.854  0.00  0.00     0.034 A 
ATOM     18  C21 <0> d   1      -1.295   1.501  10.503  0.00  0.00     0.024 A 
ATOM     19 Cl1  <0> d   1      -3.464   0.180  11.438  0.00  0.00    -0.084 Cl
ATOM     20  C20 <0> d   1       0.003   1.582  10.043  0.00  0.00     0.014 A 
ENDBRANCH   8  14
ENDBRANCH   1   7
BRANCH   6  21
ATOM     21  O1  <0> d   1       3.033   3.150   6.503  0.00  0.00    -0.360 OA
ATOM     22  H10 <0> d   1       3.831   2.879   6.029  0.00  0.00     0.217 HD
ENDBRANCH   6  21
BRANCH   4  23
ATOM     23  O2  <0> d   1      -0.840   2.295   3.884  0.00  0.00    -0.349 OA
BRANCH  23  24
ATOM     24  C11 <0> d   1      -1.968   1.449   3.651  0.00  0.00     0.203 C 
BRANCH  24  25
ATOM     25  C12 <0> d   1      -2.775   1.989   2.469  0.00  0.00     0.261 C 
BRANCH  25  26
ATOM     26  N3  <0> d   1      -1.994   1.880   1.218  0.00  0.00    -0.064 N 
ATOM     27  C13 <0> d   1      -1.381   0.537   1.120  0.00  0.00     0.266 C 
ATOM     28  C14 <0> d   1      -0.610   0.446  -0.200  0.00  0.00     0.143 C 
ATOM     29  O3  <0> d   1       0.373   1.484  -0.246  0.00  0.00    -0.378 OA
ATOM     30  C18 <0> d   1       0.080  -0.916  -0.296  0.00  0.00     0.041 C 
ATOM     31  C15 <0> d   1      -0.174   2.800  -0.132  0.00  0.00     0.143 C 
ATOM     32  C16 <0> d   1      -0.940   2.917   1.189  0.00  0.00     0.266 C 
ATOM     33  C17 <0> d   1       0.959   3.828  -0.158  0.00  0.00     0.041 C 
ATOM     34  H29 <0> d   1      -2.622   2.020   0.418  0.00  0.00     0.280 HD
ENDBRANCH  25  26
ENDBRANCH  24  25
ENDBRANCH  23  24
ENDBRANCH   4  23
TORSDOF 7
