REMARK  9 active torsions:
REMARK  status: ('A' for Active; 'I' for Inactive)
REMARK    1  A    between atoms: C2_2  and  C3_3 
REMARK    2  A    between atoms: C3_3  and  C4_4 
REMARK    3  A    between atoms: C4_4  and  N1_5 
REMARK    4  A    between atoms: N1_5  and  C6_7 
REMARK    5  A    between atoms: C6_7  and  C7_8 
REMARK    6  A    between atoms: C8_9  and  O4_32 
REMARK    7  A    between atoms: C14_16  and  C15_17 
REMARK    8  A    between atoms: N2_19  and  C24_28 
REMARK    9  A    between atoms: C20_23  and  O2_26 
ROOT
ATOM      1  C7  <0> d   1       2.163  -0.149   1.104  0.00  0.00     0.035 A 
ATOM      2  C8  <0> d   1       3.068  -0.994   0.483  0.00  0.00     0.076 A 
ATOM      3  C9  <0> d   1       4.415  -0.653   0.403  0.00  0.00     0.038 A 
ATOM      4  C10 <0> d   1       4.862   0.519   0.947  0.00  0.00     0.021 A 
ATOM      5  C11 <0> d   1       3.963   1.377   1.580  0.00  0.00     0.051 A 
ATOM      6  C12 <0> d   1       2.601   1.045   1.662  0.00  0.00     0.101 A 
ATOM      7  O1  <0> d   1       1.951   2.031   2.316  0.00  0.00    -0.305 OA
ATOM      8  C13 <0> d   1       2.798   3.021   2.686  0.00  0.00     0.128 A 
ATOM      9  C14 <0> d   1       2.453   4.154   3.360  0.00  0.00     0.055 C 
ATOM     10  C26 <0> d   1       4.106   2.680   2.252  0.00  0.00     0.218 A 
ATOM     11  O3  <0> d   1       5.130   3.327   2.404  0.00  0.00    -0.284 OA
ENDROOT
BRANCH   9  12
ATOM     12  C15 <0> d   1       1.062   4.378   3.747  0.00  0.00    -0.005 A 
ATOM     13  C18 <0> d   1       0.523   5.540   4.480  0.00  0.00     0.005 A 
ATOM     14  C17 <0> d   1      -0.855   5.309   4.614  0.00  0.00     0.045 A 
ATOM     15  C19 <0> d   1       1.090   6.705   4.990  0.00  0.00     0.051 A 
ATOM     16  N2  <0> d   1      -1.137   4.095   4.017  0.00  0.00    -0.356 N 
ATOM     17  C22 <0> d   1      -1.645   6.248   5.269  0.00  0.00     0.033 A 
ATOM     18  C16 <0> d   1      -0.009   3.544   3.505  0.00  0.00     0.103 A 
ATOM     19  C21 <0> d   1      -1.075   7.395   5.776  0.00  0.00     0.039 A 
ATOM     20  C20 <0> d   1       0.290   7.628   5.639  0.00  0.00     0.069 A 
BRANCH  16  21
ATOM     21  C24 <0> d   1      -2.468   3.489   3.947  0.00  0.00     0.124 C 
ATOM     22  C25 <0> d   1      -3.220   4.046   2.736  0.00  0.00     0.027 C 
ENDBRANCH  16  21
BRANCH  20  23
ATOM     23  O2  <0> d   1       0.838   8.765   6.144  0.00  0.00    -0.356 OA
ATOM     24  C23 <0> d   1      -0.045   9.675   6.802  0.00  0.00     0.210 C 
ENDBRANCH  20  23
ENDBRANCH   9  12
BRANCH   1  25
ATOM     25  C6  <0> d   1       0.706  -0.527   1.180  0.00  0.00     0.278 C 
BRANCH  25  26
ATOM     26  N1  <0> d   1       0.002  -0.004   0.002  0.00  0.00    -0.071 N 
ATOM     27  C5  <0> d   1      -0.018   1.465   0.010  0.00  0.00     0.270 C 
ATOM     28  H30 <0> d   1       0.552  -0.330  -0.893  0.00  0.00     0.279 HD
BRANCH  26  29
ATOM     29  C4  <0> d   1      -1.360  -0.549  -0.083  0.00  0.00     0.234 C 
BRANCH  29  30
ATOM     30  C3  <0> d   1      -1.971  -0.185  -1.437  0.00  0.00     0.027 C 
BRANCH  30  31
ATOM     31  C2  <0> d   1      -3.389  -0.752  -1.525  0.00  0.00    -0.003 C 
ATOM     32  C1  <0> d   1      -4.001  -0.389  -2.880  0.00  0.00     0.005 C 
ENDBRANCH  30  31
ENDBRANCH  29  30
ENDBRANCH  26  29
ENDBRANCH  25  26
ENDBRANCH   1  25
BRANCH   2  33
ATOM     33  O4  <0> d   1       2.637  -2.163  -0.056  0.00  0.00    -0.360 OA
ATOM     34  H31 <0> d   1       3.351  -2.837  -0.551  0.00  0.00     0.217 HD
ENDBRANCH   2  33
TORSDOF 9
