REMARK  5 active torsions:
REMARK  status: ('A' for Active; 'I' for Inactive)
REMARK    1  A    between atoms: C3_3  and  O4_22 
REMARK    2  A    between atoms: C9_10  and  C11_13 
REMARK    3  A    between atoms: C11_13  and  N1_14 
REMARK    4  A    between atoms: O4_22  and  C18_23 
REMARK    5  A    between atoms: C23_28  and  O5_29 
ROOT
ATOM      1  C1  <0> d   1      -0.018   1.503   0.010  0.00  0.00     0.080 C 
ATOM      2  C2  <0> d   1       0.002  -0.004   0.002  0.00  0.00     0.087 A 
ATOM      3  C3  <0> d   1       0.022  -0.656   1.181  0.00  0.00     0.156 A 
ATOM      4  C4  <0> d   1       0.042  -2.080   1.197  0.00  0.00     0.221 A 
ATOM      5  O1  <0> d   1       0.060  -2.704   2.244  0.00  0.00    -0.284 OA
ATOM      6  C5  <0> d   1       0.039  -2.768  -0.106  0.00  0.00     0.052 A 
ATOM      7  C6  <0> d   1       0.057  -4.161  -0.193  0.00  0.00     0.021 A 
ATOM      8  C7  <0> d   1       0.054  -4.762  -1.419  0.00  0.00     0.041 A 
ATOM      9  C8  <0> d   1       0.032  -3.994  -2.582  0.00  0.00     0.118 A 
ATOM     10  C9  <0> d   1       0.014  -2.611  -2.512  0.00  0.00     0.039 A 
ATOM     11  C10 <0> d   1       0.017  -1.984  -1.274  0.00  0.00     0.101 A 
ATOM     12  O2  <0> d   1      -0.006  -0.640  -1.177  0.00  0.00    -0.311 OA
ATOM     13  O3  <0> d   1       0.029  -4.606  -3.793  0.00  0.00    -0.191 OA
ENDROOT
BRANCH   3  14
ATOM     14  O4  <0> d   1       0.024   0.042   2.350  0.00  0.00    -0.301 OA
BRANCH  14  15
ATOM     15  C18 <0> d   1      -1.175   0.353   2.910  0.00  0.00     0.109 A 
ATOM     16  C23 <0> d   1      -1.224   1.065   4.105  0.00  0.00     0.102 A 
ATOM     17  C22 <0> d   1      -2.448   1.380   4.671  0.00  0.00     0.039 A 
ATOM     18  C21 <0> d   1      -3.619   0.987   4.049  0.00  0.00     0.003 A 
ATOM     19  C20 <0> d   1      -3.571   0.280   2.862  0.00  0.00     0.003 A 
ATOM     20  C19 <0> d   1      -2.353  -0.034   2.289  0.00  0.00     0.040 A 
BRANCH  16  21
ATOM     21  O5  <0> d   1      -0.071   1.451   4.715  0.00  0.00    -0.353 OA
ATOM     22  C24 <0> d   1      -0.198   2.179   5.938  0.00  0.00     0.210 C 
ENDBRANCH  16  21
ENDBRANCH  14  15
ENDBRANCH   3  14
BRANCH  10  23
ATOM     23  C11 <0> d   1      -0.009  -1.790  -3.775  0.00  0.00     0.279 C 
BRANCH  23  24
ATOM     24  N1  <0> d   1       1.369  -1.505  -4.199  0.00  0.00    -0.067 N 
ATOM     25  C16 <0> d   1       1.394  -0.915  -5.543  0.00  0.00     0.239 C 
ATOM     26  C15 <0> d   1       2.825  -0.498  -5.892  0.00  0.00     0.007 C 
ATOM     27  C14 <0> d   1       3.737  -1.727  -5.835  0.00  0.00     0.007 C 
ATOM     28  C17 <0> d   1       2.855   0.096  -7.301  0.00  0.00     0.011 C 
ATOM     29  C13 <0> d   1       3.655  -2.351  -4.439  0.00  0.00     0.028 C 
ATOM     30  C12 <0> d   1       2.200  -2.714  -4.133  0.00  0.00     0.235 C 
ATOM     31  H27 <0> d   1       1.793  -0.768  -3.501  0.00  0.00     0.280 HD
ENDBRANCH  23  24
ENDBRANCH  10  23
TORSDOF 5
