REMARK  4 active torsions:
REMARK  status: ('A' for Active; 'I' for Inactive)
REMARK    1  A    between atoms: C6_6  and  C12_14 
REMARK    2  A    between atoms: C12_14  and  N1_15 
REMARK    3  A    between atoms: N2_18  and  C17_21 
REMARK    4  A    between atoms: C17_21  and  C18_22 
ROOT
ATOM      1  N1  <0> d   1      -1.315  -5.181  -1.794  0.00  0.00     0.096 N 
ATOM      2  C13 <0> d   1      -2.085  -6.036  -0.879  0.00  0.00     0.300 C 
ATOM      3  C14 <0> d   1      -3.529  -6.138  -1.376  0.00  0.00     0.265 C 
ATOM      4  N2  <0> d   1      -3.542  -6.705  -2.731  0.00  0.00    -0.064 N 
ATOM      5  C15 <0> d   1      -2.789  -5.829  -3.638  0.00  0.00     0.265 C 
ATOM      6  C16 <0> d   1      -1.339  -5.724  -3.160  0.00  0.00     0.300 C 
ATOM      7  H27 <0> d   1      -3.115  -7.620  -2.716  0.00  0.00     0.280 HD
ENDROOT
BRANCH   1   8
ATOM      8  C12 <0> d   1       0.066  -5.012  -1.320  0.00  0.00     0.312 C 
BRANCH   8   9
ATOM      9  C6  <0> d   1       0.061  -4.234  -0.030  0.00  0.00    -0.011 A 
ATOM     10  C5  <0> d   1       0.040  -2.768  -0.035  0.00  0.00     0.007 A 
ATOM     11  C4  <0> d   1       0.025  -2.050  -1.235  0.00  0.00     0.015 A 
ATOM     12  C9  <0> d   1       0.037  -2.082   1.193  0.00  0.00     0.096 A 
ATOM     13  C3  <0> d   1       0.006  -0.684  -1.207  0.00  0.00     0.008 A 
ATOM     14  C2  <0> d   1       0.002  -0.004   0.002  0.00  0.00    -0.053 A 
ATOM     15  C1  <0> d   1      -0.018   1.503   0.010  0.00  0.00     0.049 C 
ATOM     16  C10 <0> d   1       0.023  -0.693   1.196  0.00  0.00    -0.021 A 
ATOM     17  C11 <0> d   1       0.025   0.059   2.502  0.00  0.00     0.052 C 
ATOM     18  O2  <0> d   1       0.053  -2.776   2.350  0.00  0.00    -0.274 OA
ATOM     19  C8  <0> d   1       0.072  -4.118   2.363  0.00  0.00     0.288 A 
ATOM     20  C7  <0> d   1       0.077  -4.870   1.169  0.00  0.00     0.092 A 
ATOM     21  O1  <0> d   1       0.086  -4.701   3.432  0.00  0.00    -0.260 OA
ENDBRANCH   8   9
ENDBRANCH   1   8
BRANCH   4  22
ATOM     22  C17 <0> d   1      -4.929  -6.820  -3.200  0.00  0.00     0.273 C 
BRANCH  22  23
ATOM     23  C18 <0> d   1      -4.951  -7.514  -4.537  0.00  0.00    -0.033 A 
ATOM     24  C23 <0> d   1      -5.060  -8.891  -4.599  0.00  0.00     0.009 A 
ATOM     25  C22 <0> d   1      -5.085  -9.527  -5.826  0.00  0.00     0.001 A 
ATOM     26  C21 <0> d   1      -4.992  -8.788  -6.991  0.00  0.00     0.000 A 
ATOM     27  C20 <0> d   1      -4.877  -7.412  -6.928  0.00  0.00     0.001 A 
ATOM     28  C19 <0> d   1      -4.857  -6.775  -5.701  0.00  0.00     0.009 A 
ENDBRANCH  22  23
ENDBRANCH   4  22
TORSDOF 4
