REMARK  9 active torsions:
REMARK  status: ('A' for Active; 'I' for Inactive)
REMARK    1  A    between atoms: O1_2  and  C2_3 
REMARK    2  A    between atoms: C5_6  and  C8_9 
REMARK    3  A    between atoms: C9_10  and  C12_19 
REMARK    4  A    between atoms: C10_14  and  C11_15 
REMARK    5  A    between atoms: C15_22  and  O3_26 
REMARK    6  A    between atoms: C17_24  and  O2_25 
REMARK    7  A    between atoms: O3_26  and  C18_27 
REMARK    8  A    between atoms: C18_27  and  C19_28 
REMARK       I    between atoms: C19_28  and  N3_30 
REMARK    9  A    between atoms: N3_30  and  N4_31 
ROOT
ATOM      1  C8  <0> d   1       2.481  -2.452  -4.402  0.00  0.00     0.039 A 
ATOM      2  C9  <0> d   1       1.881  -3.380  -5.290  0.00  0.00     0.103 A 
ATOM      3  N1  <0> d   1       2.805  -3.786  -6.132  0.00  0.00    -0.173 NA
ATOM      4  N2  <0> d   1       4.007  -3.142  -5.815  0.00  0.00    -0.272 N 
ATOM      5  H1  <0> d   1       4.852  -3.258  -6.277  0.00  0.00     0.189 HD
ATOM      6  C10 <0> d   1       3.789  -2.328  -4.761  0.00  0.00     0.147 A 
ENDROOT
BRANCH   2   7
ATOM      7  C12 <0> d   1       0.463  -3.814  -5.272  0.00  0.00     0.029 A 
ATOM      8  C17 <0> d   1       0.145  -5.173  -5.358  0.00  0.00     0.081 A 
ATOM      9  C16 <0> d   1      -1.180  -5.573  -5.335  0.00  0.00     0.074 A 
ATOM     10  C15 <0> d   1      -2.189  -4.626  -5.239  0.00  0.00     0.072 A 
ATOM     11  C14 <0> d   1      -1.874  -3.276  -5.160  0.00  0.00     0.038 A 
ATOM     12  C13 <0> d   1      -0.556  -2.869  -5.176  0.00  0.00     0.019 A 
BRANCH   8  13
ATOM     13  O2  <0> d   1       1.135  -6.099  -5.458  0.00  0.00    -0.360 OA
ATOM     14  H12 <0> d   1       1.451  -6.430  -4.606  0.00  0.00     0.217 HD
ENDBRANCH   8  13
BRANCH  10  15
ATOM     15  O3  <0> d   1      -3.489  -5.021  -5.221  0.00  0.00    -0.342 OA
BRANCH  15  16
ATOM     16  C18 <0> d   1      -4.477  -3.994  -5.120  0.00  0.00     0.279 C 
BRANCH  16  17
ATOM     17  C19 <0> d   1      -5.850  -4.616  -5.115  0.00  0.00     0.255 C 
ATOM     18  O4  <0> d   1      -5.970  -5.821  -5.191  0.00  0.00    -0.270 OA
ATOM     19  N3  <0> d   1      -6.944  -3.834  -5.027  0.00  0.00    -0.292 N 
ATOM     20  H15 <0> d   1      -6.848  -2.871  -4.966  0.00  0.00     0.183 HD
BRANCH  19  21
ATOM     21  N4  <0> d   1      -8.188  -4.398  -5.023  0.00  0.00    -0.247 NA
ATOM     22  H16 <0> d   1      -8.905  -3.692  -4.952  0.00  0.00     0.143 HD
ATOM     23  H17 <0> d   1      -8.327  -4.974  -5.840  0.00  0.00     0.143 HD
ENDBRANCH  19  21
ENDBRANCH  16  17
ENDBRANCH  15  16
ENDBRANCH  10  15
ENDBRANCH   2   7
BRANCH   1  24
ATOM     24  C5  <0> d   1       1.806  -1.740  -3.288  0.00  0.00    -0.021 A 
ATOM     25  C4  <0> d   1       1.615  -0.361  -3.355  0.00  0.00     0.015 A 
ATOM     26  C3  <0> d   1       0.987   0.298  -2.318  0.00  0.00     0.037 A 
ATOM     27  C2  <0> d   1       0.544  -0.412  -1.210  0.00  0.00     0.068 A 
ATOM     28  C7  <0> d   1       0.737  -1.784  -1.139  0.00  0.00     0.037 A 
ATOM     29  C6  <0> d   1       1.360  -2.449  -2.174  0.00  0.00     0.015 A 
BRANCH  27  30
ATOM     30  O1  <0> d   1      -0.075   0.240  -0.191  0.00  0.00    -0.356 OA
ATOM     31  C1  <0> d   1      -0.242   1.653  -0.330  0.00  0.00     0.210 C 
ENDBRANCH  27  30
ENDBRANCH   1  24
BRANCH   6  32
ATOM     32  C11 <0> d   1       4.812  -1.443  -4.097  0.00  0.00     0.434 C 
ATOM     33  F1  <0> d   1       6.044  -1.586  -4.745  0.00  0.00    -0.165 F 
ATOM     34  F2  <0> d   1       4.396  -0.110  -4.175  0.00  0.00    -0.165 F 
ATOM     35  F3  <0> d   1       4.947  -1.812  -2.754  0.00  0.00    -0.165 F 
ENDBRANCH   6  32
TORSDOF 9
