REMARK  7 active torsions:
REMARK  status: ('A' for Active; 'I' for Inactive)
REMARK    1  A    between atoms: N2_5  and  C6_8 
REMARK    2  A    between atoms: C6_8  and  C7_9 
REMARK    3  A    between atoms: C8_10  and  O6_32 
REMARK    4  A    between atoms: C14_17  and  C15_18 
REMARK    5  A    between atoms: C18_21  and  O4_28 
REMARK    6  A    between atoms: C19_22  and  O3_26 
REMARK    7  A    between atoms: C20_23  and  O2_24 
ROOT
ATOM      1  C7  <0> d   1       2.407  -3.643   1.395  0.00  0.00     0.038 A 
ATOM      2  C8  <0> d   1       3.777  -3.697   1.196  0.00  0.00     0.076 A 
ATOM      3  C9  <0> d   1       4.611  -4.257   2.159  0.00  0.00     0.038 A 
ATOM      4  C10 <0> d   1       4.085  -4.760   3.315  0.00  0.00     0.021 A 
ATOM      5  C11 <0> d   1       2.707  -4.712   3.530  0.00  0.00     0.051 A 
ATOM      6  C12 <0> d   1       1.856  -4.144   2.568  0.00  0.00     0.101 A 
ATOM      7  O1  <0> d   1       0.577  -4.206   2.999  0.00  0.00    -0.305 OA
ATOM      8  C13 <0> d   1       0.486  -4.783   4.221  0.00  0.00     0.128 A 
ATOM      9  C14 <0> d   1      -0.657  -4.992   4.927  0.00  0.00     0.055 C 
ATOM     10  C24 <0> d   1       1.843  -5.155   4.639  0.00  0.00     0.218 A 
ATOM     11  O5  <0> d   1       2.181  -5.696   5.678  0.00  0.00    -0.284 OA
ENDROOT
BRANCH   9  12
ATOM     12  C15 <0> d   1      -1.931  -4.463   4.431  0.00  0.00     0.003 A 
ATOM     13  C20 <0> d   1      -3.034  -4.356   5.295  0.00  0.00     0.114 A 
ATOM     14  C19 <0> d   1      -4.234  -3.849   4.817  0.00  0.00     0.136 A 
ATOM     15  C18 <0> d   1      -4.344  -3.461   3.486  0.00  0.00     0.104 A 
ATOM     16  C17 <0> d   1      -3.253  -3.574   2.630  0.00  0.00     0.040 A 
ATOM     17  C16 <0> d   1      -2.056  -4.069   3.092  0.00  0.00     0.017 A 
BRANCH  13  18
ATOM     18  O2  <0> d   1      -2.925  -4.740   6.593  0.00  0.00    -0.352 OA
ATOM     19  C21 <0> d   1      -2.508  -3.746   7.531  0.00  0.00     0.210 C 
ENDBRANCH  13  18
BRANCH  14  20
ATOM     20  O3  <0> d   1      -5.305  -3.735   5.650  0.00  0.00    -0.351 OA
ATOM     21  C22 <0> d   1      -6.183  -4.860   5.734  0.00  0.00     0.210 C 
ENDBRANCH  14  20
BRANCH  15  22
ATOM     22  O4  <0> d   1      -5.522  -2.970   3.020  0.00  0.00    -0.353 OA
ATOM     23  C23 <0> d   1      -5.567  -2.591   1.643  0.00  0.00     0.210 C 
ENDBRANCH  15  22
ENDBRANCH   9  12
BRANCH   1  24
ATOM     24  C6  <0> d   1       1.516  -3.034   0.344  0.00  0.00     0.317 C 
BRANCH  24  25
ATOM     25  N2  <0> d   1       1.368  -1.595   0.600  0.00  0.00     0.096 N 
ATOM     26  C3  <0> d   1       0.706  -0.925  -0.528  0.00  0.00     0.303 C 
ATOM     27  C2  <0> d   1       0.644   0.580  -0.258  0.00  0.00     0.302 C 
ATOM     28  N1  <0> d   1      -0.085   0.820   0.995  0.00  0.00     0.087 N 
ATOM     29  C1  <0> d   1      -0.233   2.259   1.251  0.00  0.00     0.310 C 
ATOM     30  C5  <0> d   1       0.577   0.150   2.123  0.00  0.00     0.302 C 
ATOM     31  C4  <0> d   1       0.639  -1.355   1.853  0.00  0.00     0.303 C 
ENDBRANCH  24  25
ENDBRANCH   1  24
BRANCH   2  32
ATOM     32  O6  <0> d   1       4.310  -3.201   0.050  0.00  0.00    -0.360 OA
ATOM     33  H28 <0> d   1       4.552  -2.266   0.102  0.00  0.00     0.217 HD
ENDBRANCH   2  32
TORSDOF 7
