REMARK  4 active torsions:
REMARK  status: ('A' for Active; 'I' for Inactive)
REMARK    1  A    between atoms: C4_4  and  O3_28 
REMARK    2  A    between atoms: C5_5  and  C17_20 
REMARK    3  A    between atoms: C10_11  and  C11_12 
REMARK    4  A    between atoms: C17_20  and  N1_21 
ROOT
ATOM      1  C1  <0> d   1       3.824   2.635   2.513  0.00  0.00     0.049 C 
ATOM      2  C2  <0> d   1       3.136   2.323   1.209  0.00  0.00    -0.042 A 
ATOM      3  C3  <0> d   1       1.903   1.734   1.209  0.00  0.00     0.045 A 
ATOM      4  C4  <0> d   1       1.269   1.440   0.005  0.00  0.00     0.076 A 
ATOM      5  C5  <0> d   1       1.872   1.749  -1.203  0.00  0.00     0.036 A 
ATOM      6  C6  <0> d   1       3.123   2.353  -1.221  0.00  0.00     0.101 A 
ATOM      7  C7  <0> d   1       3.755   2.640  -0.001  0.00  0.00     0.057 A 
ATOM      8  C8  <0> d   1       5.046   3.268  -0.339  0.00  0.00     0.219 A 
ATOM      9  O1  <0> d   1       5.904   3.669   0.428  0.00  0.00    -0.284 OA
ATOM     10  C9  <0> d   1       5.066   3.300  -1.809  0.00  0.00     0.128 A 
ATOM     11  C10 <0> d   1       6.063   3.793  -2.587  0.00  0.00     0.053 C 
ATOM     12  O2  <0> d   1       3.909   2.748  -2.246  0.00  0.00    -0.305 OA
ENDROOT
BRANCH   5  13
ATOM     13  C17 <0> d   1       1.171   1.431  -2.498  0.00  0.00     0.279 C 
BRANCH  13  14
ATOM     14  N1  <0> d   1       0.341   2.575  -2.900  0.00  0.00    -0.064 N 
ATOM     15  C21 <0> d   1      -0.170   2.400  -4.267  0.00  0.00     0.265 C 
ATOM     16  C20 <0> d   1      -0.961   3.645  -4.676  0.00  0.00     0.299 C 
ATOM     17  N2  <0> d   1      -2.063   3.855  -3.728  0.00  0.00     0.087 N 
ATOM     18  C19 <0> d   1      -1.553   4.029  -2.361  0.00  0.00     0.299 C 
ATOM     19  C22 <0> d   1      -2.893   4.999  -4.130  0.00  0.00     0.310 C 
ATOM     20  C18 <0> d   1      -0.762   2.784  -1.952  0.00  0.00     0.265 C 
ATOM     21  H24 <0> d   1       0.976   3.473  -2.887  0.00  0.00     0.280 HD
ENDBRANCH  13  14
ENDBRANCH   5  13
BRANCH   4  22
ATOM     22  O3  <0> d   1       0.046   0.850   0.016  0.00  0.00    -0.360 OA
ATOM     23  H23 <0> d   1      -0.459   0.616  -0.932  0.00  0.00     0.217 HD
ENDBRANCH   4  22
BRANCH  11  24
ATOM     24  C11 <0> d   1       5.992   3.652  -4.047  0.00  0.00    -0.033 A 
ATOM     25  C16 <0> d   1       4.843   3.127  -4.649  0.00  0.00     0.014 A 
ATOM     26  C15 <0> d   1       4.784   2.998  -6.019  0.00  0.00     0.043 A 
ATOM     27  C14 <0> d   1       5.860   3.389  -6.803  0.00  0.00     0.116 A 
ATOM     28  C13 <0> d   1       7.002   3.910  -6.213  0.00  0.00     0.043 A 
ATOM     29  F1  <0> d   1       5.795   3.260  -8.146  0.00  0.00    -0.206 F 
ATOM     30  C12 <0> d   1       7.073   4.050  -4.845  0.00  0.00     0.014 A 
ENDBRANCH  11  24
TORSDOF 4
