REMARK  5 active torsions:
REMARK  status: ('A' for Active; 'I' for Inactive)
REMARK    1  A    between atoms: C2_2  and  N1_3 
REMARK    2  A    between atoms: N2_6  and  C7_9 
REMARK    3  A    between atoms: C7_9  and  C8_10 
REMARK    4  A    between atoms: C9_11  and  O3_28 
REMARK    5  A    between atoms: C15_18  and  C16_19 
ROOT
ATOM      1  C8  <0> d   1       1.599   3.243  -0.088  0.00  0.00     0.038 A 
ATOM      2  C9  <0> d   1       0.563   4.164  -0.090  0.00  0.00     0.076 A 
ATOM      3  C10 <0> d   1      -0.762   3.740  -0.070  0.00  0.00     0.038 A 
ATOM      4  C11 <0> d   1      -1.055   2.405  -0.044  0.00  0.00     0.021 A 
ATOM      5  C12 <0> d   1      -0.023   1.467  -0.047  0.00  0.00     0.051 A 
ATOM      6  C13 <0> d   1       1.318   1.883  -0.067  0.00  0.00     0.101 A 
ATOM      7  O1  <0> d   1       2.130   0.804  -0.061  0.00  0.00    -0.305 OA
ATOM      8  C14 <0> d   1       1.429  -0.354  -0.037  0.00  0.00     0.127 A 
ATOM      9  C15 <0> d   1       1.950  -1.607  -0.026  0.00  0.00     0.053 C 
ATOM     10  C22 <0> d   1      -0.001  -0.007  -0.026  0.00  0.00     0.218 A 
ATOM     11  O2  <0> d   1      -0.953  -0.768  -0.005  0.00  0.00    -0.284 OA
ENDROOT
BRANCH   1  12
ATOM     12  C7  <0> d   1       3.029   3.717  -0.110  0.00  0.00     0.317 C 
BRANCH  12  13
ATOM     13  N2  <0> d   1       3.479   3.852  -1.502  0.00  0.00     0.096 N 
ATOM     14  C4  <0> d   1       4.779   4.534  -1.572  0.00  0.00     0.303 C 
ATOM     15  C3  <0> d   1       5.174   4.726  -3.038  0.00  0.00     0.302 C 
ATOM     16  N1  <0> d   1       5.232   3.416  -3.702  0.00  0.00     0.091 N 
ATOM     17  C6  <0> d   1       3.932   2.734  -3.632  0.00  0.00     0.302 C 
ATOM     18  C5  <0> d   1       3.538   2.543  -2.166  0.00  0.00     0.303 C 
BRANCH  16  19
ATOM     19  C2  <0> d   1       5.682   3.551  -5.094  0.00  0.00     0.268 C 
ATOM     20  C1  <0> d   1       5.495   2.219  -5.822  0.00  0.00     0.037 C 
ENDBRANCH  16  19
ENDBRANCH  12  13
ENDBRANCH   1  12
BRANCH   2  21
ATOM     21  O3  <0> d   1       0.844   5.492  -0.112  0.00  0.00    -0.360 OA
ATOM     22  H23 <0> d   1       0.026   6.227  -0.114  0.00  0.00     0.217 HD
ENDBRANCH   2  21
BRANCH   9  23
ATOM     23  C16 <0> d   1       3.401  -1.800  -0.151  0.00  0.00    -0.033 A 
ATOM     24  C21 <0> d   1       4.261  -0.695  -0.154  0.00  0.00     0.013 A 
ATOM     25  C20 <0> d   1       5.621  -0.884  -0.272  0.00  0.00     0.024 A 
ATOM     26  C19 <0> d   1       6.138  -2.164  -0.387  0.00  0.00     0.034 A 
ATOM     27  C18 <0> d   1       5.294  -3.263  -0.386  0.00  0.00     0.024 A 
ATOM     28 Cl1  <0> d   1       7.853  -2.393  -0.534  0.00  0.00    -0.084 Cl
ATOM     29  C17 <0> d   1       3.932  -3.090  -0.264  0.00  0.00     0.013 A 
ENDBRANCH   9  23
TORSDOF 5
