REMARK  3 active torsions:
REMARK  status: ('A' for Active; 'I' for Inactive)
REMARK    1  A    between atoms: C9_10  and  C10_11 
REMARK    2  A    between atoms: N1_20  and  C19_23 
REMARK    3  A    between atoms: C19_23  and  C20_24 
ROOT
ATOM      1  C1  <0> d   1      -4.155   2.916  -2.154  0.00  0.00     0.054 C 
ATOM      2  C2  <0> d   1      -2.736   2.423  -2.268  0.00  0.00     0.007 A 
ATOM      3  C3  <0> d   1      -2.075   1.952  -1.141  0.00  0.00     0.087 A 
ATOM      4  C4  <0> d   1      -0.766   1.493  -1.234  0.00  0.00     0.005 A 
ATOM      5  C5  <0> d   1      -0.118   1.505  -2.439  0.00  0.00     0.030 A 
ATOM      6  C6  <0> d   1      -0.770   1.977  -3.578  0.00  0.00     0.052 A 
ATOM      7  C7  <0> d   1      -2.093   2.441  -3.498  0.00  0.00     0.099 A 
ATOM      8  O1  <0> d   1      -2.510   2.844  -4.718  0.00  0.00    -0.305 OA
ATOM      9  C8  <0> d   1      -1.547   2.686  -5.656  0.00  0.00     0.127 A 
ATOM     10  C9  <0> d   1      -1.653   2.995  -6.973  0.00  0.00     0.053 C 
ATOM     11  C16 <0> d   1      -0.364   2.119  -4.988  0.00  0.00     0.218 A 
ATOM     12  O2  <0> d   1       0.709   1.832  -5.488  0.00  0.00    -0.284 OA
ATOM     13  C17 <0> d   1      -0.042   0.976  -0.016  0.00  0.00     0.317 C 
ATOM     14  N1  <0> d   1      -0.737   1.427   1.198  0.00  0.00     0.120 N 
ATOM     15  C18 <0> d   1      -2.177   1.142   1.094  0.00  0.00     0.448 C 
ATOM     16  O3  <0> d   1      -2.728   1.950   0.051  0.00  0.00    -0.320 OA
ENDROOT
BRANCH  10  17
ATOM     17  C10 <0> d   1      -2.939   3.450  -7.520  0.00  0.00    -0.034 A 
ATOM     18  C15 <0> d   1      -4.021   3.688  -6.666  0.00  0.00     0.011 A 
ATOM     19  C14 <0> d   1      -5.224   4.116  -7.188  0.00  0.00     0.001 A 
ATOM     20  C13 <0> d   1      -5.362   4.309  -8.552  0.00  0.00     0.000 A 
ATOM     21  C12 <0> d   1      -4.296   4.075  -9.403  0.00  0.00     0.001 A 
ATOM     22  C11 <0> d   1      -3.085   3.652  -8.897  0.00  0.00     0.011 A 
ENDBRANCH  10  17
BRANCH  14  23
ATOM     23  C19 <0> d   1      -0.162   0.801   2.396  0.00  0.00     0.314 C 
BRANCH  23  24
ATOM     24  C20 <0> d   1      -0.725   1.463   3.627  0.00  0.00    -0.027 A 
ATOM     25  C24 <0> d   1      -1.883   0.986   4.223  0.00  0.00     0.028 A 
ATOM     26  C23 <0> d   1      -2.369   1.619   5.351  0.00  0.00     0.116 A 
ATOM     27  N2  <0> d   1      -1.746   2.663   5.861  0.00  0.00    -0.273 NA
ATOM     28  C22 <0> d   1      -0.644   3.144   5.321  0.00  0.00     0.116 A 
ATOM     29  C21 <0> d   1      -0.096   2.561   4.194  0.00  0.00     0.028 A 
ENDBRANCH  23  24
ENDBRANCH  14  23
TORSDOF 3
