REMARK  4 active torsions:
REMARK  status: ('A' for Active; 'I' for Inactive)
REMARK    1  A    between atoms: N2_5  and  C6_8 
REMARK    2  A    between atoms: C6_8  and  C7_9 
REMARK    3  A    between atoms: C8_10  and  O3_27 
REMARK    4  A    between atoms: C14_17  and  C15_18 
ROOT
ATOM      1  C7  <0> d   1       0.013  -3.743   2.748  0.00  0.00     0.038 A 
ATOM      2  C8  <0> d   1       1.369  -3.789   3.032  0.00  0.00     0.076 A 
ATOM      3  C9  <0> d   1       1.821  -4.320   4.237  0.00  0.00     0.038 A 
ATOM      4  C10 <0> d   1       0.930  -4.802   5.153  0.00  0.00     0.021 A 
ATOM      5  C11 <0> d   1      -0.438  -4.761   4.880  0.00  0.00     0.051 A 
ATOM      6  C12 <0> d   1      -0.907  -4.222   3.671  0.00  0.00     0.101 A 
ATOM      7  O1  <0> d   1      -2.256  -4.284   3.638  0.00  0.00    -0.305 OA
ATOM      8  C13 <0> d   1      -2.763  -4.835   4.766  0.00  0.00     0.128 A 
ATOM      9  C14 <0> d   1      -4.077  -5.037   5.039  0.00  0.00     0.056 C 
ATOM     10  C21 <0> d   1      -1.630  -5.187   5.636  0.00  0.00     0.218 A 
ATOM     11  O2  <0> d   1      -1.669  -5.703   6.739  0.00  0.00    -0.284 OA
ENDROOT
BRANCH   1  12
ATOM     12  C6  <0> d   1      -0.463  -3.165   1.440  0.00  0.00     0.317 C 
BRANCH  12  13
ATOM     13  N2  <0> d   1      -0.690  -1.722   1.595  0.00  0.00     0.096 N 
ATOM     14  C3  <0> d   1      -1.376  -1.168   0.419  0.00  0.00     0.303 C 
ATOM     15  C2  <0> d   1      -1.664   0.317   0.654  0.00  0.00     0.302 C 
ATOM     16  N1  <0> d   1      -0.402   1.025   0.905  0.00  0.00     0.087 N 
ATOM     17  C1  <0> d   1      -0.629   2.468   1.061  0.00  0.00     0.310 C 
ATOM     18  C5  <0> d   1       0.284   0.470   2.081  0.00  0.00     0.302 C 
ATOM     19  C4  <0> d   1       0.573  -1.014   1.847  0.00  0.00     0.303 C 
ENDBRANCH  12  13
ENDBRANCH   1  12
BRANCH   2  20
ATOM     20  O3  <0> d   1       2.262  -3.314   2.128  0.00  0.00    -0.360 OA
ATOM     21  H21 <0> d   1       2.471  -2.376   2.237  0.00  0.00     0.217 HD
ENDBRANCH   2  20
BRANCH   9  22
ATOM     22  C15 <0> d   1      -5.105  -4.502   4.138  0.00  0.00     0.005 A 
ATOM     23  C20 <0> d   1      -6.434  -4.394   4.569  0.00  0.00     0.126 A 
ATOM     24  C19 <0> d   1      -7.394  -3.883   3.716  0.00  0.00     0.043 A 
ATOM     25  F1  <0> d   1      -6.776  -4.783   5.818  0.00  0.00    -0.205 F 
ATOM     26  C18 <0> d   1      -7.046  -3.491   2.436  0.00  0.00     0.003 A 
ATOM     27  C17 <0> d   1      -5.736  -3.601   2.000  0.00  0.00     0.001 A 
ATOM     28  C16 <0> d   1      -4.765  -4.102   2.840  0.00  0.00     0.014 A 
ENDBRANCH   9  22
TORSDOF 4
