REMARK  7 active torsions:
REMARK  status: ('A' for Active; 'I' for Inactive)
REMARK    1  A    between atoms: N1_4  and  C7_9 
REMARK    2  A    between atoms: C7_9  and  C8_10 
REMARK    3  A    between atoms: C8_10  and  O2_11 
REMARK    4  A    between atoms: O2_11  and  C9_12 
REMARK    5  A    between atoms: C14_17  and  C18_23 
REMARK    6  A    between atoms: C21_26  and  O6_31 
REMARK    7  A    between atoms: C22_27  and  O5_29 
ROOT
ATOM      1  C9  <0> d   1      -2.145  -6.013   1.034  0.00  0.00     0.071 A 
ATOM      2  C10 <0> d   1      -2.568  -6.723  -0.089  0.00  0.00     0.038 A 
ATOM      3  C11 <0> d   1      -2.499  -8.085  -0.112  0.00  0.00     0.017 A 
ATOM      4  C12 <0> d   1      -2.010  -8.780   1.003  0.00  0.00    -0.001 A 
ATOM      5  C13 <0> d   1      -1.963 -10.198   1.006  0.00  0.00     0.032 C 
ATOM      6  C14 <0> d   1      -1.666 -10.837   2.184  0.00  0.00     0.051 C 
ATOM      7  C15 <0> d   1      -1.447 -10.000   3.376  0.00  0.00     0.299 C 
ATOM      8  O3  <0> d   1      -1.637 -10.438   4.495  0.00  0.00    -0.259 OA
ATOM      9  O4  <0> d   1      -1.027  -8.728   3.184  0.00  0.00    -0.274 OA
ATOM     10  C16 <0> d   1      -1.555  -8.064   2.127  0.00  0.00     0.092 A 
ATOM     11  C17 <0> d   1      -1.633  -6.680   2.135  0.00  0.00     0.075 A 
ENDROOT
BRANCH   1  12
ATOM     12  O2  <0> d   1      -2.232  -4.659   1.046  0.00  0.00    -0.349 OA
BRANCH  12  13
ATOM     13  C8  <0> d   1      -2.769  -4.032  -0.120  0.00  0.00     0.203 C 
BRANCH  13  14
ATOM     14  C7  <0> d   1      -2.787  -2.515   0.078  0.00  0.00     0.261 C 
BRANCH  14  15
ATOM     15  N1  <0> d   1      -1.410  -2.023   0.219  0.00  0.00    -0.064 N 
ATOM     16  C3  <0> d   1      -0.689  -2.218  -1.046  0.00  0.00     0.266 C 
ATOM     17  C2  <0> d   1       0.746  -1.705  -0.897  0.00  0.00     0.143 C 
ATOM     18  C1  <0> d   1       1.482  -1.851  -2.231  0.00  0.00     0.041 C 
ATOM     19  O1  <0> d   1       0.718  -0.327  -0.516  0.00  0.00    -0.378 OA
ATOM     20  C5  <0> d   1       0.004  -0.083   0.699  0.00  0.00     0.143 C 
ATOM     21  C4  <0> d   1      -1.432  -0.593   0.553  0.00  0.00     0.266 C 
ATOM     22  C6  <0> d   1      -0.015   1.420   0.989  0.00  0.00     0.041 C 
ATOM     23  H30 <0> d   1      -0.944  -2.533   0.954  0.00  0.00     0.280 HD
ENDBRANCH  14  15
ENDBRANCH  13  14
ENDBRANCH  12  13
ENDBRANCH   1  12
BRANCH   6  24
ATOM     24  C18 <0> d   1      -1.569 -12.314   2.255  0.00  0.00    -0.017 A 
ATOM     25  C23 <0> d   1      -0.347 -12.920   2.548  0.00  0.00     0.052 A 
ATOM     26  C22 <0> d   1      -0.263 -14.299   2.619  0.00  0.00     0.102 A 
ATOM     27  C21 <0> d   1      -1.393 -15.079   2.386  0.00  0.00     0.101 A 
ATOM     28  C20 <0> d   1      -2.605 -14.475   2.089  0.00  0.00     0.040 A 
ATOM     29  C19 <0> d   1      -2.697 -13.100   2.023  0.00  0.00     0.015 A 
BRANCH  26  30
ATOM     30  O5  <0> d   1       0.926 -14.893   2.909  0.00  0.00    -0.353 OA
ATOM     31  C24 <0> d   1       2.043 -14.032   3.136  0.00  0.00     0.210 C 
ENDBRANCH  26  30
BRANCH  27  32
ATOM     32  O6  <0> d   1      -1.307 -16.434   2.451  0.00  0.00    -0.353 OA
ATOM     33  C25 <0> d   1      -2.505 -17.172   2.202  0.00  0.00     0.210 C 
ENDBRANCH  27  32
ENDBRANCH   6  24
TORSDOF 7
