REMARK  6 active torsions:
REMARK  status: ('A' for Active; 'I' for Inactive)
REMARK    1  A    between atoms: O1_2  and  C2_3 
REMARK    2  A    between atoms: C5_6  and  C8_9 
REMARK    3  A    between atoms: C14_16  and  O4_33 
REMARK    4  A    between atoms: C15_17  and  C17_20 
REMARK    5  A    between atoms: C17_20  and  N1_21 
REMARK    6  A    between atoms: C22_26  and  C23_27 
ROOT
ATOM      1  C8  <0> d   1       2.345   0.263   6.808  0.00  0.00     0.053 C 
ATOM      2  C9  <0> d   1       3.277  -0.708   6.627  0.00  0.00     0.127 A 
ATOM      3  C10 <0> d   1       3.983  -1.442   7.686  0.00  0.00     0.218 A 
ATOM      4  O2  <0> d   1       3.862  -1.314   8.892  0.00  0.00    -0.284 OA
ATOM      5  C11 <0> d   1       4.871  -2.371   6.962  0.00  0.00     0.051 A 
ATOM      6  C12 <0> d   1       5.791  -3.333   7.381  0.00  0.00     0.021 A 
ATOM      7  C13 <0> d   1       6.489  -4.055   6.455  0.00  0.00     0.038 A 
ATOM      8  C14 <0> d   1       6.285  -3.834   5.096  0.00  0.00     0.076 A 
ATOM      9  C15 <0> d   1       5.375  -2.882   4.666  0.00  0.00     0.036 A 
ATOM     10  C16 <0> d   1       4.656  -2.139   5.594  0.00  0.00     0.101 A 
ATOM     11  O3  <0> d   1       3.728  -1.170   5.437  0.00  0.00    -0.305 OA
ENDROOT
BRANCH   9  12
ATOM     12  C17 <0> d   1       5.164  -2.654   3.191  0.00  0.00     0.279 C 
BRANCH  12  13
ATOM     13  N1  <0> d   1       4.222  -3.654   2.671  0.00  0.00    -0.059 N 
ATOM     14  C22 <0> d   1       3.917  -3.403   1.256  0.00  0.00     0.223 C 
ATOM     15  C21 <0> d   1       3.052  -4.541   0.710  0.00  0.00     0.038 C 
ATOM     16  C20 <0> d   1       1.758  -4.628   1.523  0.00  0.00     0.004 C 
ATOM     17  C19 <0> d   1       2.104  -4.840   2.999  0.00  0.00     0.028 C 
ATOM     18  C18 <0> d   1       2.997  -3.693   3.479  0.00  0.00     0.236 C 
ATOM     19  H26 <0> d   1       4.702  -4.641   2.741  0.00  0.00     0.281 HD
BRANCH  14  20
ATOM     20  C23 <0> d   1       5.202  -3.327   0.472  0.00  0.00    -0.010 A 
ATOM     21  C27 <0> d   1       6.186  -4.281   0.647  0.00  0.00     0.125 A 
ATOM     22  N2  <0> d   1       7.312  -4.222  -0.036  0.00  0.00    -0.273 NA
ATOM     23  C26 <0> d   1       7.545  -3.260  -0.907  0.00  0.00     0.116 A 
ATOM     24  C25 <0> d   1       6.607  -2.271  -1.136  0.00  0.00     0.020 A 
ATOM     25  C24 <0> d   1       5.408  -2.303  -0.440  0.00  0.00     0.012 A 
ENDBRANCH  14  20
ENDBRANCH  12  13
ENDBRANCH   9  12
BRANCH   8  26
ATOM     26  O4  <0> d   1       6.985  -4.556   4.184  0.00  0.00    -0.360 OA
ATOM     27  H27 <0> d   1       6.827  -4.385   3.109  0.00  0.00     0.217 HD
ENDBRANCH   8  26
BRANCH   1  28
ATOM     28  C5  <0> d   1       1.644   0.834   5.652  0.00  0.00    -0.033 A 
ATOM     29  C4  <0> d   1       0.593   1.739   5.843  0.00  0.00     0.014 A 
ATOM     30  C3  <0> d   1      -0.057   2.276   4.755  0.00  0.00     0.037 A 
ATOM     31  C2  <0> d   1       0.321   1.911   3.467  0.00  0.00     0.068 A 
ATOM     32  C7  <0> d   1       1.364   1.013   3.271  0.00  0.00     0.037 A 
ATOM     33  C6  <0> d   1       2.024   0.475   4.352  0.00  0.00     0.014 A 
BRANCH  31  34
ATOM     34  O1  <0> d   1      -0.327   2.439   2.398  0.00  0.00    -0.356 OA
ATOM     35  C1  <0> d   1      -1.389   3.356   2.670  0.00  0.00     0.210 C 
ENDBRANCH  31  34
ENDBRANCH   1  28
TORSDOF 6
