REMARK  7 active torsions:
REMARK  status: ('A' for Active; 'I' for Inactive)
REMARK    1  A    between atoms: C2_2  and  N1_3 
REMARK    2  A    between atoms: N2_6  and  C7_9 
REMARK    3  A    between atoms: C7_9  and  C8_10 
REMARK    4  A    between atoms: C9_11  and  O5_30 
REMARK    5  A    between atoms: C15_18  and  O3_21 
REMARK    6  A    between atoms: O3_21  and  C17_22 
REMARK    7  A    between atoms: C20_25  and  O4_28 
ROOT
ATOM      1  C8  <0> d   1      -1.529   2.508   3.069  0.00  0.00     0.035 A 
ATOM      2  C9  <0> d   1      -0.891   3.620   3.594  0.00  0.00     0.076 A 
ATOM      3  C10 <0> d   1      -1.139   4.026   4.903  0.00  0.00     0.038 A 
ATOM      4  C11 <0> d   1      -2.006   3.325   5.692  0.00  0.00     0.021 A 
ATOM      5  C12 <0> d   1      -2.651   2.199   5.180  0.00  0.00     0.051 A 
ATOM      6  C13 <0> d   1      -2.413   1.785   3.857  0.00  0.00     0.100 A 
ATOM      7  O1  <0> d   1      -3.043   0.696   3.373  0.00  0.00    -0.318 OA
ATOM      8  C14 <0> d   1      -3.902  -0.023   4.108  0.00  0.00     0.184 A 
ATOM      9  C15 <0> d   1      -4.204   0.285   5.385  0.00  0.00     0.149 A 
ATOM     10  C16 <0> d   1      -3.595   1.417   5.998  0.00  0.00     0.220 A 
ATOM     11  O2  <0> d   1      -3.843   1.726   7.151  0.00  0.00    -0.284 OA
ENDROOT
BRANCH   1  12
ATOM     12  C7  <0> d   1      -1.258   2.081   1.649  0.00  0.00     0.279 C 
BRANCH  12  13
ATOM     13  N2  <0> d   1      -2.214   2.740   0.749  0.00  0.00    -0.064 N 
ATOM     14  C4  <0> d   1      -1.838   2.538  -0.657  0.00  0.00     0.265 C 
ATOM     15  C3  <0> d   1      -2.898   3.171  -1.562  0.00  0.00     0.300 C 
ATOM     16  N1  <0> d   1      -3.014   4.602  -1.251  0.00  0.00     0.091 N 
ATOM     17  C6  <0> d   1      -3.390   4.803   0.156  0.00  0.00     0.300 C 
ATOM     18  C5  <0> d   1      -2.330   4.171   1.060  0.00  0.00     0.265 C 
ATOM     19  H27 <0> d   1      -3.199   2.277   0.907  0.00  0.00     0.280 HD
BRANCH  16  20
ATOM     20  C2  <0> d   1      -3.969   5.261  -2.151  0.00  0.00     0.268 C 
ATOM     21  C1  <0> d   1      -4.251   6.678  -1.646  0.00  0.00     0.037 C 
ENDBRANCH  16  20
ENDBRANCH  12  13
ENDBRANCH   1  12
BRANCH   2  22
ATOM     22  O5  <0> d   1      -0.022   4.323   2.824  0.00  0.00    -0.360 OA
ATOM     23  H26 <0> d   1       0.486   5.207   3.236  0.00  0.00     0.217 HD
ENDBRANCH   2  22
BRANCH   9  24
ATOM     24  O3  <0> d   1      -5.085  -0.481   6.085  0.00  0.00    -0.305 OA
BRANCH  24  25
ATOM     25  C17 <0> d   1      -5.630  -1.558   5.460  0.00  0.00     0.076 A 
ATOM     26  C22 <0> d   1      -5.002  -2.793   5.533  0.00  0.00     0.040 A 
ATOM     27  C21 <0> d   1      -5.556  -3.888   4.898  0.00  0.00     0.039 A 
ATOM     28  C20 <0> d   1      -6.739  -3.753   4.188  0.00  0.00     0.068 A 
ATOM     29  C19 <0> d   1      -7.367  -2.518   4.115  0.00  0.00     0.039 A 
ATOM     30  C18 <0> d   1      -6.817  -1.425   4.755  0.00  0.00     0.040 A 
BRANCH  28  31
ATOM     31  O4  <0> d   1      -7.284  -4.831   3.564  0.00  0.00    -0.356 OA
ATOM     32  C23 <0> d   1      -8.505  -4.619   2.851  0.00  0.00     0.210 C 
ENDBRANCH  28  31
ENDBRANCH  24  25
ENDBRANCH   9  24
TORSDOF 7
