REMARK  5 active torsions:
REMARK  status: ('A' for Active; 'I' for Inactive)
REMARK    1  A    between atoms: N2_5  and  C6_8 
REMARK    2  A    between atoms: C6_8  and  C7_9 
REMARK    3  A    between atoms: C7_9  and  O1_10 
REMARK    4  A    between atoms: O1_10  and  C8_11 
REMARK    5  A    between atoms: C13_16  and  C17_22 
ROOT
ATOM      1  C8  <0> d   1      -1.226   3.170   0.194  0.00  0.00     0.071 A 
ATOM      2  C9  <0> d   1      -1.179   1.781   0.083  0.00  0.00     0.038 A 
ATOM      3  C10 <0> d   1       0.017   1.127   0.097  0.00  0.00     0.017 A 
ATOM      4  C11 <0> d   1       1.212   1.854   0.213  0.00  0.00    -0.001 A 
ATOM      5  C12 <0> d   1       2.459   1.179   0.223  0.00  0.00     0.032 A 
ATOM      6  C13 <0> d   1       3.608   1.915   0.337  0.00  0.00     0.051 A 
ATOM      7  C14 <0> d   1       3.512   3.372   0.445  0.00  0.00     0.299 A 
ATOM      8  O2  <0> d   1       4.524   4.041   0.548  0.00  0.00    -0.259 OA
ATOM      9  O3  <0> d   1       2.310   3.973   0.432  0.00  0.00    -0.274 OA
ATOM     10  C15 <0> d   1       1.170   3.256   0.319  0.00  0.00     0.092 A 
ATOM     11  C16 <0> d   1      -0.057   3.904   0.308  0.00  0.00     0.075 A 
ENDROOT
BRANCH   1  12
ATOM     12  O1  <0> d   1      -2.424   3.807   0.183  0.00  0.00    -0.349 OA
BRANCH  12  13
ATOM     13  C7  <0> d   1      -3.591   2.991   0.062  0.00  0.00     0.206 C 
BRANCH  13  14
ATOM     14  C6  <0> d   1      -4.837   3.880   0.069  0.00  0.00     0.299 C 
BRANCH  14  15
ATOM     15  N2  <0> d   1      -4.836   4.734  -1.126  0.00  0.00     0.093 N 
ATOM     16  C3  <0> d   1      -5.214   3.968  -2.321  0.00  0.00     0.302 C 
ATOM     17  C2  <0> d   1      -5.123   4.872  -3.553  0.00  0.00     0.302 C 
ATOM     18  N1  <0> d   1      -6.008   6.032  -3.372  0.00  0.00     0.087 N 
ATOM     19  C1  <0> d   1      -6.007   6.886  -4.567  0.00  0.00     0.310 C 
ATOM     20  C5  <0> d   1      -5.630   6.798  -2.176  0.00  0.00     0.302 C 
ATOM     21  C4  <0> d   1      -5.720   5.894  -0.945  0.00  0.00     0.302 C 
ENDBRANCH  14  15
ENDBRANCH  13  14
ENDBRANCH  12  13
ENDBRANCH   1  12
BRANCH   6  22
ATOM     22  C17 <0> d   1       4.930   1.246   0.351  0.00  0.00    -0.020 A 
ATOM     23  C22 <0> d   1       5.949   1.690  -0.491  0.00  0.00     0.012 A 
ATOM     24  C21 <0> d   1       7.178   1.063  -0.474  0.00  0.00     0.001 A 
ATOM     25  C20 <0> d   1       7.401  -0.004   0.377  0.00  0.00     0.000 A 
ATOM     26  C19 <0> d   1       6.394  -0.450   1.215  0.00  0.00     0.001 A 
ATOM     27  C18 <0> d   1       5.163   0.173   1.211  0.00  0.00     0.012 A 
ENDBRANCH   6  22
TORSDOF 5
