REMARK  6 active torsions:
REMARK  status: ('A' for Active; 'I' for Inactive)
REMARK    1  A    between atoms: C2_2  and  C4_4 
REMARK    2  A    between atoms: C4_4  and  O1_5 
REMARK    3  A    between atoms: O1_5  and  C5_6 
REMARK    4  A    between atoms: C8_9  and  C11_13 
REMARK    5  A    between atoms: C12_14  and  C14_19 
REMARK    6  A    between atoms: C19_24  and  O3_25 
ROOT
ATOM      1  C11 <0> d   1      -5.422  -5.657   0.108  0.00  0.00     0.102 A 
ATOM      2  C12 <0> d   1      -5.378  -7.061  -0.079  0.00  0.00     0.025 A 
ATOM      3  C13 <0> d   1      -6.664  -7.511  -0.113  0.00  0.00     0.124 A 
ATOM      4  N1  <0> d   1      -7.478  -6.446   0.044  0.00  0.00    -0.288 N 
ATOM      5  H1  <0> d   1      -8.448  -6.470   0.060  0.00  0.00     0.188 HD
ATOM      6  N2  <0> d   1      -6.686  -5.300   0.185  0.00  0.00    -0.174 NA
ENDROOT
BRANCH   1   7
ATOM      7  C8  <0> d   1      -4.252  -4.752   0.205  0.00  0.00     0.032 A 
ATOM      8  C7  <0> d   1      -3.215  -4.849  -0.720  0.00  0.00     0.019 A 
ATOM      9  C6  <0> d   1      -2.127  -4.005  -0.628  0.00  0.00     0.038 A 
ATOM     10  C5  <0> d   1      -2.063  -3.058   0.386  0.00  0.00     0.071 A 
ATOM     11  C10 <0> d   1      -3.088  -2.959   1.315  0.00  0.00     0.077 A 
ATOM     12  C9  <0> d   1      -4.186  -3.798   1.226  0.00  0.00     0.122 A 
ATOM     13  O2  <0> d   1      -5.194  -3.699   2.132  0.00  0.00    -0.191 OA
BRANCH  10  14
ATOM     14  O1  <0> d   1      -0.989  -2.230   0.472  0.00  0.00    -0.347 OA
BRANCH  14  15
ATOM     15  C4  <0> d   1       0.031  -2.386  -0.516  0.00  0.00     0.208 C 
BRANCH  15  16
ATOM     16  C2  <0> d   1       1.133  -1.390  -0.262  0.00  0.00    -0.069 C 
ATOM     17  C1  <0> d   1       2.335  -1.348  -1.170  0.00  0.00     0.044 C 
ATOM     18  C3  <0> d   1       1.047  -0.561   0.749  0.00  0.00     0.016 C 
ENDBRANCH  15  16
ENDBRANCH  14  15
ENDBRANCH  10  14
ENDBRANCH   1   7
BRANCH   2  19
ATOM     19  C14 <0> d   1      -4.155  -7.891  -0.214  0.00  0.00     0.011 A 
ATOM     20  C19 <0> d   1      -3.274  -8.022   0.863  0.00  0.00     0.079 A 
ATOM     21  C18 <0> d   1      -2.137  -8.803   0.730  0.00  0.00     0.037 A 
ATOM     22  C17 <0> d   1      -1.871  -9.441  -0.467  0.00  0.00     0.003 A 
ATOM     23  C16 <0> d   1      -2.739  -9.309  -1.536  0.00  0.00     0.001 A 
ATOM     24  C15 <0> d   1      -3.878  -8.538  -1.416  0.00  0.00     0.015 A 
BRANCH  20  25
ATOM     25  O3  <0> d   1      -3.533  -7.389   2.037  0.00  0.00    -0.355 OA
ATOM     26  C20 <0> d   1      -2.588  -7.569   3.094  0.00  0.00     0.210 C 
ENDBRANCH  20  25
ENDBRANCH   2  19
TORSDOF 6
