REMARK  5 active torsions:
REMARK  status: ('A' for Active; 'I' for Inactive)
REMARK    1  A    between atoms: C2_2  and  N1_3 
REMARK    2  A    between atoms: N2_6  and  C7_9 
REMARK    3  A    between atoms: C7_9  and  C8_10 
REMARK    4  A    between atoms: C9_11  and  O5_32 
REMARK    5  A    between atoms: C16_20  and  C17_21 
ROOT
ATOM      1  C8  <0> d   1       3.484   2.318  -0.019  0.00  0.00     0.036 A 
ATOM      2  C9  <0> d   1       4.726   1.706  -0.034  0.00  0.00     0.076 A 
ATOM      3  C10 <0> d   1       4.830   0.317  -0.043  0.00  0.00     0.038 A 
ATOM      4  C11 <0> d   1       3.706  -0.460  -0.036  0.00  0.00     0.018 A 
ATOM      5  C12 <0> d   1       2.446   0.143  -0.021  0.00  0.00     0.010 A 
ATOM      6  C13 <0> d   1       2.333   1.543  -0.012  0.00  0.00     0.101 A 
ATOM      7  O1  <0> d   1       1.113   2.123   0.003  0.00  0.00    -0.274 OA
ATOM      8  C14 <0> d   1      -0.017   1.399   0.010  0.00  0.00     0.289 A 
ATOM      9  O2  <0> d   1      -1.090   1.976   0.018  0.00  0.00    -0.260 OA
ATOM     10  C15 <0> d   1       0.002  -0.004   0.002  0.00  0.00     0.096 A 
ATOM     11  C16 <0> d   1       1.217  -0.670  -0.013  0.00  0.00    -0.001 A 
ENDROOT
BRANCH  11  12
ATOM     12  C17 <0> d   1       1.278  -2.143  -0.022  0.00  0.00     0.052 A 
ATOM     13  C25 <0> d   1       1.859  -2.874   1.111  0.00  0.00     0.299 A 
ATOM     14  O3  <0> d   1       1.904  -4.216   1.096  0.00  0.00    -0.274 OA
ATOM     15  O4  <0> d   1       2.295  -2.262   2.068  0.00  0.00    -0.259 OA
ATOM     16  C24 <0> d   1       1.434  -4.925   0.047  0.00  0.00     0.089 A 
ATOM     17  C19 <0> d   1       0.873  -4.277  -1.067  0.00  0.00    -0.001 A 
ATOM     18  C23 <0> d   1       1.502  -6.314   0.063  0.00  0.00     0.038 A 
ATOM     19  C18 <0> d   1       0.794  -2.861  -1.100  0.00  0.00     0.032 A 
ATOM     20  C20 <0> d   1       0.391  -5.036  -2.144  0.00  0.00     0.014 A 
ATOM     21  C21 <0> d   1       0.469  -6.398  -2.105  0.00  0.00     0.001 A 
ATOM     22  C22 <0> d   1       1.023  -7.040  -1.006  0.00  0.00     0.003 A 
ENDBRANCH  11  12
BRANCH   1  23
ATOM     23  C7  <0> d   1       3.382   3.822  -0.009  0.00  0.00     0.279 C 
BRANCH  23  24
ATOM     24  N2  <0> d   1       3.363   4.302   1.379  0.00  0.00    -0.064 N 
ATOM     25  C4  <0> d   1       3.503   5.764   1.432  0.00  0.00     0.265 C 
ATOM     26  C3  <0> d   1       3.558   6.216   2.893  0.00  0.00     0.300 C 
ATOM     27  N1  <0> d   1       2.336   5.782   3.584  0.00  0.00     0.091 N 
ATOM     28  C6  <0> d   1       2.196   4.320   3.531  0.00  0.00     0.300 C 
ATOM     29  C5  <0> d   1       2.140   3.868   2.069  0.00  0.00     0.265 C 
ATOM     30  H25 <0> d   1       4.224   3.859   1.901  0.00  0.00     0.280 HD
BRANCH  27  31
ATOM     31  C2  <0> d   1       2.317   6.263   4.972  0.00  0.00     0.268 C 
ATOM     32  C1  <0> d   1       0.935   6.011   5.579  0.00  0.00     0.037 C 
ENDBRANCH  27  31
ENDBRANCH  23  24
ENDBRANCH   1  23
BRANCH   2  33
ATOM     33  O5  <0> d   1       5.852   2.465  -0.041  0.00  0.00    -0.360 OA
ATOM     34  H24 <0> d   1       6.840   1.983  -0.053  0.00  0.00     0.217 HD
ENDBRANCH   2  33
TORSDOF 5
