REMARK  6 active torsions:
REMARK  status: ('A' for Active; 'I' for Inactive)
REMARK    1  A    between atoms: N1_4  and  C7_9 
REMARK    2  A    between atoms: C7_9  and  C8_10 
REMARK    3  A    between atoms: C8_10  and  O2_11 
REMARK    4  A    between atoms: O2_11  and  C9_12 
REMARK    5  A    between atoms: C12_15  and  C15_19 
REMARK    6  A    between atoms: C16_20  and  C18_25 
ROOT
ATOM      1  C9  <0> d   1       6.311   0.397  -1.502  0.00  0.00     0.071 A 
ATOM      2  C10 <0> d   1       6.541   1.518  -2.289  0.00  0.00     0.038 A 
ATOM      3  C11 <0> d   1       7.765   2.151  -2.253  0.00  0.00     0.019 A 
ATOM      4  C12 <0> d   1       8.776   1.665  -1.426  0.00  0.00     0.032 A 
ATOM      5  C13 <0> d   1       8.544   0.536  -0.634  0.00  0.00     0.122 A 
ATOM      6  C14 <0> d   1       7.310  -0.090  -0.672  0.00  0.00     0.077 A 
ATOM      7  O3  <0> d   1       9.526   0.057   0.174  0.00  0.00    -0.191 OA
ENDROOT
BRANCH   4   8
ATOM      8  C15 <0> d   1      10.094   2.343  -1.385  0.00  0.00     0.102 A 
ATOM      9  C16 <0> d   1      10.869   2.729  -2.508  0.00  0.00     0.022 A 
ATOM     10  C17 <0> d   1      12.004   3.319  -2.038  0.00  0.00     0.124 A 
ATOM     11  N2  <0> d   1      11.949   3.307  -0.691  0.00  0.00    -0.288 N 
ATOM     12  H3  <0> d   1      12.625   3.662  -0.092  0.00  0.00     0.188 HD
ATOM     13  N3  <0> d   1      10.749   2.699  -0.302  0.00  0.00    -0.174 NA
BRANCH   9  14
ATOM     14  C18 <0> d   1      10.511   2.527  -3.933  0.00  0.00    -0.022 A 
ATOM     15  C23 <0> d   1      10.502   3.609  -4.812  0.00  0.00     0.014 A 
ATOM     16  C22 <0> d   1      10.174   3.414  -6.138  0.00  0.00     0.024 A 
ATOM     17  C21 <0> d   1       9.841   2.150  -6.594  0.00  0.00     0.034 A 
ATOM     18  C20 <0> d   1       9.843   1.073  -5.723  0.00  0.00     0.024 A 
ATOM     19 Cl1  <0> d   1       9.422   1.914  -8.262  0.00  0.00    -0.084 Cl
ATOM     20  C19 <0> d   1      10.176   1.256  -4.397  0.00  0.00     0.014 A 
ENDBRANCH   9  14
ENDBRANCH   4   8
BRANCH   1  21
ATOM     21  O2  <0> d   1       5.102  -0.223  -1.542  0.00  0.00    -0.349 OA
BRANCH  21  22
ATOM     22  C8  <0> d   1       4.118   0.331  -2.418  0.00  0.00     0.206 C 
BRANCH  22  23
ATOM     23  C7  <0> d   1       2.833  -0.494  -2.328  0.00  0.00     0.299 C 
BRANCH  23  24
ATOM     24  N1  <0> d   1       2.278  -0.389  -0.972  0.00  0.00     0.095 N 
ATOM     25  C3  <0> d   1       1.621   0.910  -0.771  0.00  0.00     0.303 C 
ATOM     26  C2  <0> d   1       1.111   1.001   0.670  0.00  0.00     0.146 C 
ATOM     27  C1  <0> d   1       2.296   0.945   1.636  0.00  0.00     0.041 C 
ATOM     28  O1  <0> d   1       0.231  -0.096   0.930  0.00  0.00    -0.378 OA
ATOM     29  C5  <0> d   1       0.839  -1.378   0.744  0.00  0.00     0.146 C 
ATOM     30  C4  <0> d   1       1.346  -1.492  -0.696  0.00  0.00     0.303 C 
ATOM     31  C6  <0> d   1      -0.191  -2.477   1.012  0.00  0.00     0.041 C 
ENDBRANCH  23  24
ENDBRANCH  22  23
ENDBRANCH  21  22
ENDBRANCH   1  21
TORSDOF 6
