REMARK  6 active torsions:
REMARK  status: ('A' for Active; 'I' for Inactive)
REMARK    1  A    between atoms: O1_2  and  C2_3 
REMARK    2  A    between atoms: C5_6  and  C8_9 
REMARK    3  A    between atoms: N1_21  and  C19_24 
REMARK    4  A    between atoms: C19_24  and  C20_25 
REMARK    5  A    between atoms: C20_25  and  C21_26 
REMARK    6  A    between atoms: C21_26  and  N2_27 
ROOT
ATOM      1  C8  <0> d   1      -4.964  -2.620   0.036  0.00  0.00     0.048 C 
ATOM      2  C9  <0> d   1      -5.817  -2.513  -1.016  0.00  0.00     0.159 C 
ATOM      3  O2  <0> d   1      -6.999  -3.131  -1.054  0.00  0.00    -0.320 OA
ATOM      4  C10 <0> d   1      -7.564  -3.649   0.054  0.00  0.00     0.100 A 
ATOM      5  C11 <0> d   1      -6.799  -3.841   1.218  0.00  0.00     0.050 A 
ATOM      6  C12 <0> d   1      -5.376  -3.448   1.185  0.00  0.00     0.197 C 
ATOM      7  O3  <0> d   1      -4.591  -3.783   2.055  0.00  0.00    -0.286 OA
ATOM      8  C13 <0> d   1      -7.378  -4.388   2.362  0.00  0.00     0.021 A 
ATOM      9  C14 <0> d   1      -8.699  -4.733   2.351  0.00  0.00     0.038 A 
ATOM     10  C15 <0> d   1      -9.472  -4.540   1.205  0.00  0.00     0.082 A 
ATOM     11  C16 <0> d   1      -8.909  -3.999   0.063  0.00  0.00     0.038 A 
ATOM     12  C17 <0> d   1      -9.736  -3.780  -1.178  0.00  0.00     0.319 C 
ATOM     13  N1  <0> d   1     -10.970  -4.575  -1.096  0.00  0.00     0.116 N 
ATOM     14  C18 <0> d   1     -11.625  -4.361   0.205  0.00  0.00     0.447 C 
ATOM     15  O4  <0> d   1     -10.784  -4.895   1.231  0.00  0.00    -0.321 OA
ENDROOT
BRANCH  13  16
ATOM     16  C19 <0> d   1     -11.880  -4.251  -2.203  0.00  0.00     0.277 C 
BRANCH  16  17
ATOM     17  C20 <0> d   1     -13.029  -5.261  -2.231  0.00  0.00     0.058 C 
BRANCH  17  18
ATOM     18  C21 <0> d   1     -13.976  -4.923  -3.384  0.00  0.00     0.236 C 
BRANCH  18  19
ATOM     19  N2  <0> d   1     -15.080  -5.893  -3.410  0.00  0.00    -0.067 N 
ATOM     20  C25 <0> d   1     -16.052  -5.500  -4.440  0.00  0.00     0.261 C 
ATOM     21  C24 <0> d   1     -17.201  -6.512  -4.466  0.00  0.00     0.195 C 
ATOM     22  O5  <0> d   1     -16.673  -7.818  -4.712  0.00  0.00    -0.388 OA
ATOM     23  C23 <0> d   1     -15.703  -8.236  -3.748  0.00  0.00     0.195 C 
ATOM     24  C22 <0> d   1     -14.551  -7.228  -3.721  0.00  0.00     0.261 C 
ATOM     25  H29 <0> d   1     -15.533  -5.912  -2.509  0.00  0.00     0.280 HD
ENDBRANCH  18  19
ENDBRANCH  17  18
ENDBRANCH  16  17
ENDBRANCH  13  16
BRANCH   1  26
ATOM     26  C5  <0> d   1      -3.651  -1.929   0.027  0.00  0.00    -0.020 A 
ATOM     27  C4  <0> d   1      -3.596  -0.536   0.028  0.00  0.00     0.015 A 
ATOM     28  C3  <0> d   1      -2.374   0.104   0.020  0.00  0.00     0.037 A 
ATOM     29  C2  <0> d   1      -1.200  -0.637   0.010  0.00  0.00     0.068 A 
ATOM     30  C7  <0> d   1      -1.252  -2.025   0.003  0.00  0.00     0.037 A 
ATOM     31  C6  <0> d   1      -2.471  -2.670   0.017  0.00  0.00     0.015 A 
BRANCH  29  32
ATOM     32  O1  <0> d   1       0.002  -0.004   0.002  0.00  0.00    -0.356 OA
ATOM     33  C1  <0> d   1      -0.017   1.425   0.010  0.00  0.00     0.210 C 
ENDBRANCH  29  32
ENDBRANCH   1  26
TORSDOF 6
