REMARK  7 active torsions:
REMARK  status: ('A' for Active; 'I' for Inactive)
REMARK    1  A    between atoms: N1_2  and  C3_4 
REMARK    2  A    between atoms: C3_4  and  C4_5 
REMARK    3  A    between atoms: C5_6  and  O5_29 
REMARK    4  A    between atoms: C10_12  and  C20_25 
REMARK    5  A    between atoms: C11_13  and  O3_16 
REMARK    6  A    between atoms: O3_16  and  C13_17 
REMARK    7  A    between atoms: C17_21  and  O4_23 
ROOT
ATOM      1  C4  <0> d   1      -2.034  -0.442  -1.151  0.00  0.00     0.038 A 
ATOM      2  C5  <0> d   1      -2.751   0.743  -1.173  0.00  0.00     0.076 A 
ATOM      3  C6  <0> d   1      -3.327   1.201  -2.357  0.00  0.00     0.038 A 
ATOM      4  C7  <0> d   1      -3.192   0.486  -3.513  0.00  0.00     0.021 A 
ATOM      5  C8  <0> d   1      -2.473  -0.709  -3.507  0.00  0.00     0.052 A 
ATOM      6  C9  <0> d   1      -1.883  -1.177  -2.319  0.00  0.00     0.101 A 
ATOM      7  O1  <0> d   1      -1.186  -2.331  -2.326  0.00  0.00    -0.301 OA
ATOM      8  C10 <0> d   1      -1.022  -3.063  -3.436  0.00  0.00     0.197 A 
ATOM      9  C11 <0> d   1      -1.540  -2.706  -4.628  0.00  0.00     0.165 A 
ATOM     10  C12 <0> d   1      -2.305  -1.510  -4.732  0.00  0.00     0.221 A 
ATOM     11  O2  <0> d   1      -2.789  -1.155  -5.794  0.00  0.00    -0.284 OA
ENDROOT
BRANCH   9  12
ATOM     12  O3  <0> d   1      -1.341  -3.490  -5.724  0.00  0.00    -0.304 OA
BRANCH  12  13
ATOM     13  C13 <0> d   1      -0.577  -2.994  -6.732  0.00  0.00     0.079 A 
ATOM     14  C18 <0> d   1      -0.441  -3.707  -7.914  0.00  0.00     0.074 A 
ATOM     15  C17 <0> d   1       0.335  -3.196  -8.943  0.00  0.00     0.070 A 
ATOM     16  C16 <0> d   1       0.982  -1.979  -8.784  0.00  0.00     0.037 A 
ATOM     17  C15 <0> d   1       0.849  -1.273  -7.604  0.00  0.00     0.005 A 
ATOM     18  C14 <0> d   1       0.072  -1.777  -6.579  0.00  0.00     0.037 A 
BRANCH  15  19
ATOM     19  O4  <0> d   1       0.467  -3.890 -10.104  0.00  0.00    -0.356 OA
ATOM     20  C19 <0> d   1       1.286  -3.306 -11.119  0.00  0.00     0.210 C 
ENDBRANCH  15  19
ENDBRANCH  12  13
ENDBRANCH   9  12
BRANCH   8  21
ATOM     21  C20 <0> d   1      -0.227  -4.340  -3.347  0.00  0.00     0.442 C 
ATOM     22  F1  <0> d   1      -0.290  -5.015  -4.571  0.00  0.00    -0.164 F 
ATOM     23  F2  <0> d   1       1.107  -4.039  -3.049  0.00  0.00    -0.164 F 
ATOM     24  F3  <0> d   1      -0.758  -5.152  -2.339  0.00  0.00    -0.164 F 
ENDBRANCH   8  21
BRANCH   1  25
ATOM     25  C3  <0> d   1      -1.416  -0.928   0.134  0.00  0.00     0.315 C 
BRANCH  25  26
ATOM     26  N1  <0> d   1      -0.057  -0.385   0.260  0.00  0.00     0.084 N 
ATOM     27  C1  <0> d   1      -0.087   1.076   0.417  0.00  0.00     0.309 C 
ATOM     28  C2  <0> d   1       0.663  -1.019   1.372  0.00  0.00     0.309 C 
ENDBRANCH  25  26
ENDBRANCH   1  25
BRANCH   2  29
ATOM     29  O5  <0> d   1      -2.894   1.464  -0.032  0.00  0.00    -0.360 OA
ATOM     30  H18 <0> d   1      -2.195   2.117   0.111  0.00  0.00     0.217 HD
ENDBRANCH   2  29
TORSDOF 7
