REMARK  7 active torsions:
REMARK  status: ('A' for Active; 'I' for Inactive)
REMARK    1  A    between atoms: C2_2  and  N1_3 
REMARK    2  A    between atoms: N1_3  and  C3_4 
REMARK    3  A    between atoms: N1_3  and  C5_6 
REMARK    4  A    between atoms: C5_6  and  C6_7 
REMARK    5  A    between atoms: C13_15  and  O3_18 
REMARK    6  A    between atoms: O3_18  and  C15_19 
REMARK    7  A    between atoms: C18_22  and  O4_25 
ROOT
ATOM      1  C6  <0> d   1      -1.400   1.539   1.180  0.00  0.00     0.039 A 
ATOM      2  C7  <0> d   1      -2.409   0.654   1.521  0.00  0.00     0.118 A 
ATOM      3  C8  <0> d   1      -3.291   0.949   2.559  0.00  0.00     0.041 A 
ATOM      4  C9  <0> d   1      -3.170   2.117   3.256  0.00  0.00     0.021 A 
ATOM      5  C10 <0> d   1      -2.159   3.019   2.926  0.00  0.00     0.051 A 
ATOM      6  C11 <0> d   1      -1.261   2.728   1.883  0.00  0.00     0.100 A 
ATOM      7  O1  <0> d   1      -0.291   3.609   1.568  0.00  0.00    -0.318 OA
ATOM      8  C12 <0> d   1      -0.133   4.767   2.223  0.00  0.00     0.184 A 
ATOM      9  C13 <0> d   1      -0.933   5.144   3.240  0.00  0.00     0.149 A 
ATOM     10  C14 <0> d   1      -1.995   4.290   3.652  0.00  0.00     0.220 A 
ATOM     11  O2  <0> d   1      -2.739   4.598   4.569  0.00  0.00    -0.284 OA
ATOM     12  O5  <0> d   1      -2.541  -0.511   0.837  0.00  0.00    -0.191 OA
ENDROOT
BRANCH   9  13
ATOM     13  O3  <0> d   1      -0.727   6.334   3.869  0.00  0.00    -0.305 OA
BRANCH  13  14
ATOM     14  C15 <0> d   1      -0.010   6.329   5.025  0.00  0.00     0.076 A 
ATOM     15  C20 <0> d   1       0.129   7.497   5.760  0.00  0.00     0.040 A 
ATOM     16  C19 <0> d   1       0.857   7.492   6.933  0.00  0.00     0.039 A 
ATOM     17  C18 <0> d   1       1.448   6.319   7.378  0.00  0.00     0.068 A 
ATOM     18  C17 <0> d   1       1.310   5.151   6.643  0.00  0.00     0.039 A 
ATOM     19  C16 <0> d   1       0.577   5.154   5.472  0.00  0.00     0.040 A 
BRANCH  17  20
ATOM     20  O4  <0> d   1       2.165   6.314   8.534  0.00  0.00    -0.356 OA
ATOM     21  C21 <0> d   1       2.746   5.070   8.931  0.00  0.00     0.210 C 
ENDBRANCH  17  20
ENDBRANCH  13  14
ENDBRANCH   9  13
BRANCH   1  22
ATOM     22  C5  <0> d   1      -0.453   1.210   0.056  0.00  0.00     0.279 C 
BRANCH  22  23
ATOM     23  N1  <0> d   1      -0.995   1.726  -1.208  0.00  0.00    -0.068 N 
ATOM     24  H23 <0> d   1      -2.027   1.361  -1.308  0.00  0.00     0.280 HD
BRANCH  23  25
ATOM     25  C2  <0> d   1      -1.034   3.195  -1.203  0.00  0.00     0.231 C 
ATOM     26  C1  <0> d   1       0.394   3.743  -1.166  0.00  0.00     0.034 C 
ENDBRANCH  23  25
BRANCH  23  27
ATOM     27  C3  <0> d   1      -0.226   1.224  -2.355  0.00  0.00     0.231 C 
ATOM     28  C4  <0> d   1      -0.940   1.606  -3.654  0.00  0.00     0.034 C 
ENDBRANCH  23  27
ENDBRANCH  22  23
ENDBRANCH   1  22
TORSDOF 7
