REMARK  12 active torsions:
REMARK  status: ('A' for Active; 'I' for Inactive)
REMARK    1  A    between atoms: O1_2  and  C2_3 
REMARK    2  A    between atoms: C2_3  and  C3_4 
REMARK    3  A    between atoms: C3_4  and  N1_5 
REMARK    4  A    between atoms: N1_5  and  C4_6 
REMARK    5  A    between atoms: N1_5  and  C7_10 
REMARK    6  A    between atoms: C4_6  and  C5_7 
REMARK    7  A    between atoms: C5_7  and  O2_8 
REMARK    8  A    between atoms: C7_10  and  C8_11 
REMARK    9  A    between atoms: C15_19  and  C16_20 
REMARK   10  A    between atoms: C19_23  and  O6_30 
REMARK   11  A    between atoms: C20_24  and  O5_28 
REMARK   12  A    between atoms: C21_25  and  O4_26 
ROOT
ATOM      1  C8  <0> d   1       0.164  -3.030   0.117  0.00  0.00     0.039 A 
ATOM      2  C9  <0> d   1       1.393  -3.303   0.697  0.00  0.00     0.118 A 
ATOM      3  C10 <0> d   1       1.466  -3.947   1.929  0.00  0.00     0.041 A 
ATOM      4  C11 <0> d   1       0.323  -4.316   2.580  0.00  0.00     0.021 A 
ATOM      5  C12 <0> d   1      -0.920  -4.047   2.008  0.00  0.00     0.051 A 
ATOM      6  C13 <0> d   1      -1.008  -3.393   0.768  0.00  0.00     0.101 A 
ATOM      7  O3  <0> d   1      -2.305  -3.239   0.426  0.00  0.00    -0.305 OA
ATOM      8  C14 <0> d   1      -3.137  -3.747   1.366  0.00  0.00     0.128 A 
ATOM      9  C15 <0> d   1      -4.496  -3.748   1.320  0.00  0.00     0.055 C 
ATOM     10  C25 <0> d   1      -2.306  -4.307   2.439  0.00  0.00     0.218 A 
ATOM     11  O7  <0> d   1      -2.679  -4.854   3.463  0.00  0.00    -0.284 OA
ATOM     12  O8  <0> d   1       2.534  -2.941   0.057  0.00  0.00    -0.191 OA
ENDROOT
BRANCH   9  13
ATOM     13  C16 <0> d   1      -5.188  -3.302   0.107  0.00  0.00     0.003 A 
ATOM     14  C21 <0> d   1      -6.552  -2.967   0.156  0.00  0.00     0.114 A 
ATOM     15  C20 <0> d   1      -7.196  -2.540  -0.996  0.00  0.00     0.136 A 
ATOM     16  C19 <0> d   1      -6.495  -2.457  -2.194  0.00  0.00     0.104 A 
ATOM     17  C18 <0> d   1      -5.146  -2.793  -2.243  0.00  0.00     0.040 A 
ATOM     18  C17 <0> d   1      -4.493  -3.212  -1.107  0.00  0.00     0.017 A 
BRANCH  14  19
ATOM     19  O4  <0> d   1      -7.235  -3.055   1.327  0.00  0.00    -0.352 OA
ATOM     20  C22 <0> d   1      -7.255  -1.891   2.155  0.00  0.00     0.210 C 
ENDBRANCH  14  19
BRANCH  15  21
ATOM     21  O5  <0> d   1      -8.515  -2.208  -0.955  0.00  0.00    -0.351 OA
ATOM     22  C23 <0> d   1      -9.456  -3.255  -1.201  0.00  0.00     0.210 C 
ENDBRANCH  15  21
BRANCH  16  23
ATOM     23  O6  <0> d   1      -7.130  -2.043  -3.322  0.00  0.00    -0.353 OA
ATOM     24  C24 <0> d   1      -6.351  -1.980  -4.518  0.00  0.00     0.210 C 
ENDBRANCH  16  23
ENDBRANCH   9  13
BRANCH   1  25
ATOM     25  C7  <0> d   1       0.099  -2.332  -1.218  0.00  0.00     0.279 C 
BRANCH  25  26
ATOM     26  N1  <0> d   1       0.055  -0.879  -1.009  0.00  0.00    -0.063 N 
ATOM     27  H31 <0> d   1      -0.678  -0.656  -0.352  0.00  0.00     0.280 HD
BRANCH  26  28
ATOM     28  C3  <0> d   1       1.346  -0.420  -0.477  0.00  0.00     0.261 C 
BRANCH  28  29
ATOM     29  C2  <0> d   1       1.254   1.066  -0.127  0.00  0.00     0.194 C 
BRANCH  29  30
ATOM     30  O1  <0> d   1       0.286   1.253   0.907  0.00  0.00    -0.394 OA
ATOM     31  C1  <0> d   1       0.042   2.623   1.234  0.00  0.00     0.201 C 
ENDBRANCH  29  30
ENDBRANCH  28  29
ENDBRANCH  26  28
BRANCH  26  32
ATOM     32  C4  <0> d   1      -0.214  -0.208  -2.288  0.00  0.00     0.261 C 
BRANCH  32  33
ATOM     33  C5  <0> d   1       0.876  -0.577  -3.296  0.00  0.00     0.194 C 
BRANCH  33  34
ATOM     34  O2  <0> d   1       0.753  -1.956  -3.648  0.00  0.00    -0.394 OA
ATOM     35  C6  <0> d   1       1.791  -2.431  -4.508  0.00  0.00     0.201 C 
ENDBRANCH  33  34
ENDBRANCH  32  33
ENDBRANCH  26  32
ENDBRANCH  25  26
ENDBRANCH   1  25
TORSDOF 12
