REMARK  6 active torsions:
REMARK  status: ('A' for Active; 'I' for Inactive)
REMARK    1  A    between atoms: C4_4  and  C7_7 
REMARK    2  A    between atoms: C7_7  and  N1_8 
REMARK    3  A    between atoms: N2_11  and  C12_14 
REMARK    4  A    between atoms: C12_14  and  C13_15 
REMARK    5  A    between atoms: C20_24  and  O4_27 
REMARK    6  A    between atoms: C21_25  and  O3_26 
ROOT
ATOM      1  C13 <0> d   1       7.755  -1.882   4.871  0.00  0.00    -0.011 A 
ATOM      2  C14 <0> d   1       8.932  -1.210   4.969  0.00  0.00     0.092 A 
ATOM      3  C15 <0> d   1      10.149  -1.921   4.951  0.00  0.00     0.288 A 
ATOM      4  O1  <0> d   1      11.197  -1.306   5.040  0.00  0.00    -0.260 OA
ATOM      5  O2  <0> d   1      10.183  -3.258   4.839  0.00  0.00    -0.272 OA
ATOM      6  C16 <0> d   1       9.050  -3.986   4.737  0.00  0.00     0.126 A 
ATOM      7  C17 <0> d   1       7.799  -3.341   4.754  0.00  0.00     0.009 A 
ATOM      8  C18 <0> d   1       6.622  -4.092   4.654  0.00  0.00     0.018 A 
ATOM      9  C19 <0> d   1       6.690  -5.451   4.546  0.00  0.00     0.040 A 
ATOM     10  C20 <0> d   1       7.922  -6.098   4.533  0.00  0.00     0.101 A 
ATOM     11  C21 <0> d   1       9.102  -5.370   4.621  0.00  0.00     0.134 A 
ENDROOT
BRANCH   1  12
ATOM     12  C12 <0> d   1       6.440  -1.146   4.888  0.00  0.00     0.312 C 
BRANCH  12  13
ATOM     13  N2  <0> d   1       5.998  -0.900   3.509  0.00  0.00     0.096 N 
ATOM     14  C9  <0> d   1       4.849   0.016   3.479  0.00  0.00     0.303 C 
ATOM     15  C8  <0> d   1       4.471   0.308   2.026  0.00  0.00     0.303 C 
ATOM     16  N1  <0> d   1       4.153  -0.953   1.342  0.00  0.00     0.096 N 
ATOM     17  C11 <0> d   1       5.302  -1.869   1.371  0.00  0.00     0.303 C 
ATOM     18  C10 <0> d   1       5.681  -2.161   2.825  0.00  0.00     0.303 C 
BRANCH  16  19
ATOM     19  C7  <0> d   1       3.711  -0.707  -0.038  0.00  0.00     0.311 C 
BRANCH  19  20
ATOM     20  C4  <0> d   1       2.396   0.029  -0.020  0.00  0.00    -0.030 A 
ATOM     21  C3  <0> d   1       2.377   1.411  -0.013  0.00  0.00     0.009 A 
ATOM     22  C2  <0> d   1       1.171   2.086   0.002  0.00  0.00     0.001 A 
ATOM     23  C1  <0> d   1      -0.017   1.378   0.010  0.00  0.00     0.000 A 
ATOM     24  C6  <0> d   1       0.002  -0.004   0.002  0.00  0.00     0.001 A 
ATOM     25  C5  <0> d   1       1.208  -0.679  -0.012  0.00  0.00     0.009 A 
ENDBRANCH  19  20
ENDBRANCH  16  19
ENDBRANCH  12  13
ENDBRANCH   1  12
BRANCH  11  26
ATOM     26  O3  <0> d   1      10.303  -6.010   4.608  0.00  0.00    -0.356 OA
ATOM     27  H21 <0> d   1      10.619  -6.270   5.484  0.00  0.00     0.218 HD
ENDBRANCH  11  26
BRANCH  10  28
ATOM     28  O4  <0> d   1       7.972  -7.452   4.425  0.00  0.00    -0.358 OA
ATOM     29  H22 <0> d   1       8.015  -7.772   3.514  0.00  0.00     0.217 HD
ENDBRANCH  10  28
TORSDOF 6
