REMARK  9 active torsions:
REMARK  status: ('A' for Active; 'I' for Inactive)
REMARK    1  A    between atoms: O1_2  and  C2_3 
REMARK    2  A    between atoms: C5_6  and  O6_31 
REMARK    3  A    between atoms: C6_7  and  C8_9 
REMARK    4  A    between atoms: C14_16  and  O5_30 
REMARK    5  A    between atoms: C15_17  and  C17_20 
REMARK    6  A    between atoms: C17_20  and  N1_21 
REMARK    7  A    between atoms: N2_24  and  C22_27 
REMARK    8  A    between atoms: C22_27  and  C23_28 
REMARK    9  A    between atoms: C23_28  and  O4_29 
ROOT
ATOM      1  C8  <0> d   1      -2.555  -4.135   0.017  0.00  0.00     0.055 C 
ATOM      2  C9  <0> d   1      -1.415  -4.865  -0.094  0.00  0.00     0.128 A 
ATOM      3  C10 <0> d   1      -1.328  -6.327  -0.219  0.00  0.00     0.218 A 
ATOM      4  O2  <0> d   1      -2.246  -7.129  -0.244  0.00  0.00    -0.284 OA
ATOM      5  C11 <0> d   1       0.117  -6.605  -0.307  0.00  0.00     0.051 A 
ATOM      6  C12 <0> d   1       0.856  -7.781  -0.437  0.00  0.00     0.021 A 
ATOM      7  C13 <0> d   1       2.220  -7.726  -0.494  0.00  0.00     0.038 A 
ATOM      8  C14 <0> d   1       2.873  -6.498  -0.422  0.00  0.00     0.076 A 
ATOM      9  C15 <0> d   1       2.152  -5.323  -0.292  0.00  0.00     0.038 A 
ATOM     10  C16 <0> d   1       0.764  -5.361  -0.234  0.00  0.00     0.101 A 
ATOM     11  O3  <0> d   1      -0.153  -4.377  -0.117  0.00  0.00    -0.305 OA
ENDROOT
BRANCH   1  12
ATOM     12  C6  <0> d   1      -2.497  -2.670  -0.029  0.00  0.00     0.003 A 
ATOM     13  C5  <0> d   1      -3.660  -1.924  -0.278  0.00  0.00     0.078 A 
ATOM     14  C4  <0> d   1      -3.595  -0.541  -0.320  0.00  0.00     0.040 A 
ATOM     15  C3  <0> d   1      -2.390   0.104  -0.118  0.00  0.00     0.039 A 
ATOM     16  C2  <0> d   1      -1.234  -0.627   0.129  0.00  0.00     0.069 A 
ATOM     17  C7  <0> d   1      -1.279  -2.007   0.168  0.00  0.00     0.051 A 
BRANCH  13  18
ATOM     18  O6  <0> d   1      -4.846  -2.556  -0.475  0.00  0.00    -0.355 OA
ATOM     19  C24 <0> d   1      -5.987  -1.732  -0.722  0.00  0.00     0.210 C 
ENDBRANCH  13  18
BRANCH  16  20
ATOM     20  O1  <0> d   1      -0.053   0.018   0.326  0.00  0.00    -0.356 OA
ATOM     21  C1  <0> d   1      -0.077   1.446   0.272  0.00  0.00     0.210 C 
ENDBRANCH  16  20
ENDBRANCH   1  12
BRANCH   9  22
ATOM     22  C17 <0> d   1       2.873  -4.001  -0.215  0.00  0.00     0.317 C 
BRANCH  22  23
ATOM     23  N1  <0> d   1       3.045  -3.458  -1.569  0.00  0.00     0.096 N 
ATOM     24  C21 <0> d   1       3.527  -2.070  -1.522  0.00  0.00     0.303 C 
ATOM     25  C20 <0> d   1       3.618  -1.516  -2.946  0.00  0.00     0.302 C 
ATOM     26  N2  <0> d   1       4.523  -2.359  -3.740  0.00  0.00     0.093 N 
ATOM     27  C19 <0> d   1       4.041  -3.746  -3.787  0.00  0.00     0.302 C 
ATOM     28  C18 <0> d   1       3.950  -4.300  -2.363  0.00  0.00     0.303 C 
BRANCH  26  29
ATOM     29  C22 <0> d   1       4.696  -1.815  -5.094  0.00  0.00     0.298 C 
BRANCH  29  30
ATOM     30  C23 <0> d   1       5.427  -0.474  -5.016  0.00  0.00     0.194 C 
BRANCH  30  31
ATOM     31  O4  <0> d   1       6.751  -0.682  -4.520  0.00  0.00    -0.399 OA
ATOM     32  H24 <0> d   1       7.274   0.128  -4.444  0.00  0.00     0.209 HD
ENDBRANCH  30  31
ENDBRANCH  29  30
ENDBRANCH  26  29
ENDBRANCH  22  23
ENDBRANCH   9  22
BRANCH   8  33
ATOM     33  O5  <0> d   1       4.229  -6.453  -0.479  0.00  0.00    -0.360 OA
ATOM     34  H25 <0> d   1       4.582  -6.368  -1.375  0.00  0.00     0.217 HD
ENDBRANCH   8  33
TORSDOF 9
