REMARK  5 active torsions:
REMARK  status: ('A' for Active; 'I' for Inactive)
REMARK    1  A    between atoms: O1_2  and  C2_3 
REMARK    2  A    between atoms: C5_6  and  C9_11 
REMARK    3  A    between atoms: C7_8  and  O2_9 
REMARK    4  A    between atoms: C17_21  and  C18_22 
REMARK    5  A    between atoms: C18_22  and  N1_23 
ROOT
ATOM      1  C9  <0> d   1      -2.394   5.354   0.055  0.00  0.00     0.048 A 
ATOM      2  C10 <0> d   1      -1.163   5.926   0.045  0.00  0.00     0.159 A 
ATOM      3  O3  <0> d   1      -0.037   5.208   0.030  0.00  0.00    -0.320 OA
ATOM      4  C11 <0> d   1      -0.019   3.860   0.022  0.00  0.00     0.100 A 
ATOM      5  C12 <0> d   1      -1.223   3.135   0.031  0.00  0.00     0.050 A 
ATOM      6  C13 <0> d   1      -2.492   3.884   0.048  0.00  0.00     0.197 A 
ATOM      7  O4  <0> d   1      -3.570   3.315   0.056  0.00  0.00    -0.286 OA
ATOM      8  C14 <0> d   1      -1.206   1.739   0.017  0.00  0.00     0.021 A 
ATOM      9  C15 <0> d   1      -0.013   1.076   0.008  0.00  0.00     0.041 A 
ATOM     10  C16 <0> d   1       1.186   1.785   0.000  0.00  0.00     0.118 A 
ATOM     11  C17 <0> d   1       1.186   3.170   0.007  0.00  0.00     0.039 A 
ATOM     12  O6  <0> d   1       2.365   1.113  -0.015  0.00  0.00    -0.191 OA
ENDROOT
BRANCH   1  13
ATOM     13  C5  <0> d   1      -3.618   6.192   0.071  0.00  0.00    -0.017 A 
ATOM     14  C4  <0> d   1      -4.641   5.952  -0.844  0.00  0.00     0.015 A 
ATOM     15  C3  <0> d   1      -5.779   6.733  -0.828  0.00  0.00     0.040 A 
ATOM     16  C2  <0> d   1      -5.907   7.758   0.098  0.00  0.00     0.101 A 
ATOM     17  C7  <0> d   1      -4.888   8.002   1.015  0.00  0.00     0.102 A 
ATOM     18  C6  <0> d   1      -3.748   7.218   1.006  0.00  0.00     0.052 A 
BRANCH  16  19
ATOM     19  O1  <0> d   1      -7.030   8.525   0.111  0.00  0.00    -0.353 OA
ATOM     20  C1  <0> d   1      -8.036   8.219  -0.857  0.00  0.00     0.210 C 
ENDBRANCH  16  19
BRANCH  17  21
ATOM     21  O2  <0> d   1      -5.016   9.006   1.922  0.00  0.00    -0.353 OA
ATOM     22  C8  <0> d   1      -3.932   9.200   2.833  0.00  0.00     0.210 C 
ENDBRANCH  17  21
ENDBRANCH   1  13
BRANCH  11  23
ATOM     23  C18 <0> d   1       2.490   3.926  -0.002  0.00  0.00     0.281 C 
BRANCH  23  24
ATOM     24  N1  <0> d   1       2.899   4.179  -1.390  0.00  0.00    -0.046 N 
ATOM     25  C22 <0> d   1       1.961   5.091  -2.058  0.00  0.00     0.402 C 
ATOM     26  O5  <0> d   1       2.430   5.376  -3.378  0.00  0.00    -0.364 OA
ATOM     27  C21 <0> d   1       2.550   4.220  -4.212  0.00  0.00     0.171 C 
ATOM     28  C20 <0> d   1       3.517   3.229  -3.558  0.00  0.00     0.054 C 
ATOM     29  C19 <0> d   1       3.029   2.920  -2.138  0.00  0.00     0.240 C 
ATOM     30  H23 <0> d   1       3.886   4.664  -1.367  0.00  0.00     0.282 HD
ENDBRANCH  23  24
ENDBRANCH  11  23
TORSDOF 5
