REMARK  5 active torsions:
REMARK  status: ('A' for Active; 'I' for Inactive)
REMARK    1  A    between atoms: C2_2  and  N1_3 
REMARK    2  A    between atoms: C4_5  and  C11_12 
REMARK    3  A    between atoms: C18_20  and  C20_23 
REMARK    4  A    between atoms: C20_23  and  N2_24 
REMARK    5  A    between atoms: N3_27  and  C25_30 
ROOT
ATOM      1  C11 <0> d   1      -2.533   1.389   0.021  0.00  0.00     0.055 C 
ATOM      2  C12 <0> d   1      -2.801   0.053   0.016  0.00  0.00     0.128 A 
ATOM      3  C13 <0> d   1      -4.095  -0.534   0.025  0.00  0.00     0.218 A 
ATOM      4  O1  <0> d   1      -5.170   0.042   0.039  0.00  0.00    -0.284 OA
ATOM      5  C14 <0> d   1      -3.859  -1.988   0.011  0.00  0.00     0.051 A 
ATOM      6  C15 <0> d   1      -4.703  -3.099   0.010  0.00  0.00     0.021 A 
ATOM      7  C16 <0> d   1      -4.171  -4.357   0.003  0.00  0.00     0.041 A 
ATOM      8  C17 <0> d   1      -2.790  -4.535  -0.004  0.00  0.00     0.118 A 
ATOM      9  C18 <0> d   1      -1.940  -3.442  -0.003  0.00  0.00     0.041 A 
ATOM     10  C19 <0> d   1      -2.464  -2.156   0.005  0.00  0.00     0.101 A 
ATOM     11  O2  <0> d   1      -1.879  -0.939   0.008  0.00  0.00    -0.305 OA
ATOM     12  O3  <0> d   1      -2.273  -5.790  -0.012  0.00  0.00    -0.191 OA
ENDROOT
BRANCH   1  13
ATOM     13  C4  <0> d   1      -1.149   1.856   0.017  0.00  0.00    -0.005 A 
ATOM     14  C3  <0> d   1      -0.013   1.076   0.008  0.00  0.00     0.103 A 
ATOM     15  N1  <0> d   1       1.084   1.873   0.002  0.00  0.00    -0.356 N 
ATOM     16  C6  <0> d   1       0.715   3.204   0.012  0.00  0.00     0.045 A 
ATOM     17  C5  <0> d   1      -0.688   3.258   0.025  0.00  0.00     0.002 A 
ATOM     18  C7  <0> d   1       1.443   4.389   0.010  0.00  0.00     0.030 A 
ATOM     19  C10 <0> d   1      -1.339   4.488   0.036  0.00  0.00     0.014 A 
ATOM     20  C9  <0> d   1      -0.601   5.652   0.034  0.00  0.00     0.001 A 
ATOM     21  C8  <0> d   1       0.785   5.600   0.022  0.00  0.00     0.002 A 
BRANCH  15  22
ATOM     22  C2  <0> d   1       2.467   1.391  -0.013  0.00  0.00     0.124 C 
ATOM     23  C1  <0> d   1       3.003   1.334   1.419  0.00  0.00     0.027 C 
ENDBRANCH  15  22
ENDBRANCH   1  13
BRANCH   9  24
ATOM     24  C20 <0> d   1      -0.447  -3.647  -0.009  0.00  0.00     0.317 C 
BRANCH  24  25
ATOM     25  N2  <0> d   1       0.043  -3.721   1.374  0.00  0.00     0.096 N 
ATOM     26  C24 <0> d   1       1.447  -4.155   1.413  0.00  0.00     0.300 C 
ATOM     27  C23 <0> d   1       1.895  -4.295   2.870  0.00  0.00     0.265 C 
ATOM     28  N3  <0> d   1       1.725  -3.007   3.557  0.00  0.00    -0.068 N 
ATOM     29  C22 <0> d   1       0.322  -2.573   3.518  0.00  0.00     0.265 C 
ATOM     30  H29 <0> d   1       2.328  -2.256   3.026  0.00  0.00     0.280 HD
ATOM     31  C21 <0> d   1      -0.126  -2.433   2.061  0.00  0.00     0.300 C 
BRANCH  28  32
ATOM     32  C25 <0> d   1       2.215  -3.080   4.940  0.00  0.00     0.230 C 
ATOM     33  C26 <0> d   1       1.800  -1.816   5.696  0.00  0.00     0.034 C 
ENDBRANCH  28  32
ENDBRANCH  24  25
ENDBRANCH   9  24
TORSDOF 5
