REMARK  5 active torsions:
REMARK  status: ('A' for Active; 'I' for Inactive)
REMARK    1  A    between atoms: O1_2  and  C2_3 
REMARK    2  A    between atoms: C7_8  and  O2_9 
REMARK    3  A    between atoms: O2_9  and  C8_10 
REMARK    4  A    between atoms: C10_15  and  C11_16 
REMARK    5  A    between atoms: C14_19  and  O4_23 
ROOT
ATOM      1  C8  <0> d   1       0.099  -4.104  -0.306  0.00  0.00     0.124 A 
ATOM      2  C9  <0> d   1       0.673  -4.791  -1.322  0.00  0.00     0.149 A 
ATOM      3  N1  <0> d   1       0.433  -6.113  -1.118  0.00  0.00    -0.286 N 
ATOM      4  H1  <0> d   1       0.728  -6.840  -1.689  0.00  0.00     0.188 HD
ATOM      5  N2  <0> d   1      -0.313  -6.243   0.060  0.00  0.00    -0.172 NA
ATOM      6  C10 <0> d   1      -0.512  -5.040   0.556  0.00  0.00     0.125 A 
ENDROOT
BRANCH   1   7
ATOM      7  O2  <0> d   1       0.112  -2.753  -0.142  0.00  0.00    -0.304 OA
BRANCH   7   8
ATOM      8  C7  <0> d   1       0.656  -1.996  -1.131  0.00  0.00     0.109 A 
ATOM      9  C2  <0> d   1      -0.093  -1.682  -2.262  0.00  0.00     0.102 A 
ATOM     10  C3  <0> d   1       0.464  -0.905  -3.265  0.00  0.00     0.039 A 
ATOM     11  C4  <0> d   1       1.763  -0.448  -3.144  0.00  0.00     0.003 A 
ATOM     12  C5  <0> d   1       2.509  -0.764  -2.024  0.00  0.00     0.003 A 
ATOM     13  C6  <0> d   1       1.960  -1.539  -1.020  0.00  0.00     0.040 A 
BRANCH   9  14
ATOM     14  O1  <0> d   1      -1.371  -2.133  -2.379  0.00  0.00    -0.353 OA
ATOM     15  C1  <0> d   1      -2.080  -1.773  -3.567  0.00  0.00     0.210 C 
ENDBRANCH   9  14
ENDBRANCH   7   8
ENDBRANCH   1   7
BRANCH   6  16
ATOM     16  C11 <0> d   1      -1.253  -4.723   1.802  0.00  0.00     0.034 A 
ATOM     17  C16 <0> d   1      -1.812  -5.752   2.566  0.00  0.00     0.122 A 
ATOM     18  C15 <0> d   1      -2.498  -5.450   3.730  0.00  0.00     0.077 A 
ATOM     19  O3  <0> d   1      -1.677  -7.045   2.170  0.00  0.00    -0.191 OA
ATOM     20  C14 <0> d   1      -2.639  -4.130   4.130  0.00  0.00     0.068 A 
ATOM     21  C13 <0> d   1      -2.089  -3.107   3.368  0.00  0.00     0.037 A 
ATOM     22  C12 <0> d   1      -1.399  -3.399   2.210  0.00  0.00     0.020 A 
BRANCH  20  23
ATOM     23  O4  <0> d   1      -3.316  -3.836   5.270  0.00  0.00    -0.361 OA
ATOM     24  H13 <0> d   1      -4.263  -3.691   5.139  0.00  0.00     0.217 HD
ENDBRANCH  20  23
ENDBRANCH   6  16
TORSDOF 5
