REMARK  11 active torsions:
REMARK  status: ('A' for Active; 'I' for Inactive)
REMARK    1  A    between atoms: C2_2  and  O1_3 
REMARK    2  A    between atoms: O1_3  and  C3_4 
REMARK    3  A    between atoms: C6_7  and  C9_10 
REMARK    4  A    between atoms: C16_18  and  C18_21 
REMARK    5  A    between atoms: C18_21  and  N1_22 
REMARK    6  A    between atoms: N1_22  and  C19_23 
REMARK    7  A    between atoms: N1_22  and  C22_27 
REMARK    8  A    between atoms: C19_23  and  C20_24 
REMARK    9  A    between atoms: C20_24  and  O4_25 
REMARK   10  A    between atoms: C22_27  and  C23_28 
REMARK   11  A    between atoms: C23_28  and  O5_29 
ROOT
ATOM      1  C9  <0> d   1       2.746  -4.670   0.209  0.00  0.00     0.053 C 
ATOM      2  C10 <0> d   1       3.130  -5.530   1.186  0.00  0.00     0.127 A 
ATOM      3  C11 <0> d   1       3.489  -6.945   1.007  0.00  0.00     0.218 A 
ATOM      4  O2  <0> d   1       3.505  -7.584  -0.031  0.00  0.00    -0.284 OA
ATOM      5  C12 <0> d   1       3.825  -7.416   2.362  0.00  0.00     0.051 A 
ATOM      6  C13 <0> d   1       4.239  -8.648   2.869  0.00  0.00     0.021 A 
ATOM      7  C14 <0> d   1       4.482  -8.788   4.207  0.00  0.00     0.041 A 
ATOM      8  C15 <0> d   1       4.317  -7.703   5.064  0.00  0.00     0.118 A 
ATOM      9  C16 <0> d   1       3.906  -6.474   4.575  0.00  0.00     0.039 A 
ATOM     10  C17 <0> d   1       3.656  -6.315   3.217  0.00  0.00     0.101 A 
ATOM     11  O3  <0> d   1       3.259  -5.240   2.502  0.00  0.00    -0.305 OA
ATOM     12  O6  <0> d   1       4.560  -7.852   6.391  0.00  0.00    -0.191 OA
ENDROOT
BRANCH   9  13
ATOM     13  C18 <0> d   1       3.731  -5.309   5.515  0.00  0.00     0.279 C 
BRANCH  13  14
ATOM     14  N1  <0> d   1       4.996  -4.569   5.619  0.00  0.00    -0.063 N 
ATOM     15  H29 <0> d   1       5.733  -5.201   5.894  0.00  0.00     0.280 HD
BRANCH  14  16
ATOM     16  C19 <0> d   1       5.322  -3.973   4.317  0.00  0.00     0.261 C 
BRANCH  16  17
ATOM     17  C20 <0> d   1       6.709  -3.329   4.384  0.00  0.00     0.194 C 
BRANCH  17  18
ATOM     18  O4  <0> d   1       7.693  -4.341   4.610  0.00  0.00    -0.394 OA
ATOM     19  C21 <0> d   1       9.015  -3.833   4.801  0.00  0.00     0.201 C 
ENDBRANCH  17  18
ENDBRANCH  16  17
ENDBRANCH  14  16
BRANCH  14  20
ATOM     20  C22 <0> d   1       4.861  -3.507   6.624  0.00  0.00     0.261 C 
BRANCH  20  21
ATOM     21  C23 <0> d   1       4.675  -4.135   8.007  0.00  0.00     0.194 C 
BRANCH  21  22
ATOM     22  O5  <0> d   1       5.852  -4.865   8.361  0.00  0.00    -0.394 OA
ATOM     23  C24 <0> d   1       5.742  -5.585   9.590  0.00  0.00     0.201 C 
ENDBRANCH  21  22
ENDBRANCH  20  21
ENDBRANCH  14  20
ENDBRANCH  13  14
ENDBRANCH   9  13
BRANCH   1  24
ATOM     24  C6  <0> d   1       2.527  -3.253   0.523  0.00  0.00    -0.033 A 
ATOM     25  C5  <0> d   1       2.259  -2.339  -0.504  0.00  0.00     0.014 A 
ATOM     26  C4  <0> d   1       2.054  -1.011  -0.204  0.00  0.00     0.037 A 
ATOM     27  C3  <0> d   1       2.112  -0.577   1.115  0.00  0.00     0.068 A 
ATOM     28  C8  <0> d   1       2.384  -1.479   2.138  0.00  0.00     0.037 A 
ATOM     29  C7  <0> d   1       2.585  -2.810   1.850  0.00  0.00     0.014 A 
BRANCH  27  30
ATOM     30  O1  <0> d   1       1.910   0.733   1.406  0.00  0.00    -0.352 OA
BRANCH  30  31
ATOM     31  C2  <0> d   1       1.636   1.606   0.308  0.00  0.00     0.171 C 
ATOM     32  C1  <0> d   1       1.437   3.031   0.827  0.00  0.00     0.034 C 
ENDBRANCH  30  31
ENDBRANCH  27  30
ENDBRANCH   1  24
TORSDOF 11
