REMARK  5 active torsions:
REMARK  status: ('A' for Active; 'I' for Inactive)
REMARK    1  A    between atoms: C7_7  and  O1_8 
REMARK    2  A    between atoms: C8_9  and  C11_14 
REMARK    3  A    between atoms: C11_14  and  N1_15 
REMARK    4  A    between atoms: N2_18  and  C16_21 
REMARK    5  A    between atoms: C16_21  and  C17_22 
ROOT
ATOM      1  C11 <0> d   1       0.079  -5.042   1.246  0.00  0.00     0.312 C 
ENDROOT
BRANCH   1   2
ATOM      2  C8  <0> d   1       0.061  -4.242  -0.030  0.00  0.00    -0.011 A 
ATOM      3  C5  <0> d   1       0.041  -2.776  -0.000  0.00  0.00     0.009 A 
ATOM      4  C4  <0> d   1       0.025  -2.069  -1.216  0.00  0.00     0.091 A 
ATOM      5  C6  <0> d   1       0.036  -2.081   1.213  0.00  0.00     0.052 A 
ATOM      6  C3  <0> d   1       0.006  -0.680  -1.199  0.00  0.00     0.047 A 
ATOM      7  O3  <0> d   1       0.028  -2.744  -2.386  0.00  0.00    -0.275 OA
ATOM      8  C2  <0> d   1       0.002  -0.004   0.002  0.00  0.00    -0.026 A 
ATOM      9  C1  <0> d   1      -0.018   1.503   0.010  0.00  0.00     0.051 C 
ATOM     10  C7  <0> d   1       0.023  -0.700   1.207  0.00  0.00     0.072 A 
ATOM     11  C10 <0> d   1       0.047  -4.085  -2.421  0.00  0.00     0.288 A 
ATOM     12  C9  <0> d   1       0.063  -4.858  -1.240  0.00  0.00     0.092 A 
ATOM     13  O2  <0> d   1       0.049  -4.650  -3.499  0.00  0.00    -0.260 OA
BRANCH  10  14
ATOM     14  O1  <0> d   1       0.025  -0.018   2.383  0.00  0.00    -0.360 OA
ATOM     15  H6  <0> d   1      -0.858   0.168   2.732  0.00  0.00     0.217 HD
ENDBRANCH  10  14
ENDBRANCH   1   2
BRANCH   1  16
ATOM     16  N1  <0> d   1       1.463  -5.181   1.718  0.00  0.00     0.096 N 
ATOM     17  C15 <0> d   1       1.503  -5.745   3.074  0.00  0.00     0.300 C 
ATOM     18  C14 <0> d   1       2.956  -5.818   3.551  0.00  0.00     0.265 C 
ATOM     19  N2  <0> d   1       3.732  -6.657   2.629  0.00  0.00    -0.064 N 
ATOM     20  C13 <0> d   1       3.703  -6.067   1.284  0.00  0.00     0.265 C 
ATOM     21  H25 <0> d   1       3.331  -7.583   2.599  0.00  0.00     0.280 HD
ATOM     22  C12 <0> d   1       2.257  -5.997   0.789  0.00  0.00     0.300 C 
BRANCH  19  23
ATOM     23  C16 <0> d   1       5.122  -6.741   3.096  0.00  0.00     0.273 C 
BRANCH  23  24
ATOM     24  C17 <0> d   1       5.164  -7.457   4.422  0.00  0.00    -0.033 A 
ATOM     25  C22 <0> d   1       5.311  -8.831   4.461  0.00  0.00     0.009 A 
ATOM     26  C21 <0> d   1       5.354  -9.488   5.676  0.00  0.00     0.001 A 
ATOM     27  C20 <0> d   1       5.240  -8.771   6.853  0.00  0.00     0.000 A 
ATOM     28  C19 <0> d   1       5.088  -7.398   6.814  0.00  0.00     0.001 A 
ATOM     29  C18 <0> d   1       5.049  -6.741   5.598  0.00  0.00     0.009 A 
ENDBRANCH  23  24
ENDBRANCH  19  23
ENDBRANCH   1  16
TORSDOF 5
