REMARK  9 active torsions:
REMARK  status: ('A' for Active; 'I' for Inactive)
REMARK    1  A    between atoms: C5_5  and  C20_25 
REMARK    2  A    between atoms: C10_11  and  C11_12 
REMARK    3  A    between atoms: C13_14  and  O4_22 
REMARK    4  A    between atoms: C14_15  and  O3_20 
REMARK    5  A    between atoms: C15_16  and  O2_18 
REMARK    6  A    between atoms: C20_25  and  N1_26 
REMARK    7  A    between atoms: N2_29  and  C25_32 
REMARK    8  A    between atoms: C25_32  and  C26_33 
REMARK    9  A    between atoms: C26_33  and  O6_34 
ROOT
ATOM      1  C1  <0> d   1       2.481   7.635   0.971  0.00  0.00     0.049 C 
ATOM      2  C2  <0> d   1       2.346   6.136   1.049  0.00  0.00    -0.042 A 
ATOM      3  C3  <0> d   1       2.054   5.537   2.242  0.00  0.00     0.048 A 
ATOM      4  C4  <0> d   1       1.930   4.152   2.317  0.00  0.00     0.118 A 
ATOM      5  C5  <0> d   1       2.101   3.367   1.188  0.00  0.00     0.039 A 
ATOM      6  C6  <0> d   1       2.405   3.960  -0.031  0.00  0.00     0.102 A 
ATOM      7  C7  <0> d   1       2.521   5.358  -0.096  0.00  0.00     0.057 A 
ATOM      8  C8  <0> d   1       2.836   5.685  -1.498  0.00  0.00     0.219 A 
ATOM      9  O1  <0> d   1       3.023   6.787  -1.984  0.00  0.00    -0.284 OA
ATOM     10  C9  <0> d   1       2.875   4.383  -2.180  0.00  0.00     0.128 A 
ATOM     11  C10 <0> d   1       3.129   4.175  -3.498  0.00  0.00     0.053 C 
ATOM     12  O5  <0> d   1       2.610   3.429  -1.256  0.00  0.00    -0.305 OA
ATOM     13  O7  <0> d   1       1.639   3.566   3.506  0.00  0.00    -0.191 OA
ENDROOT
BRANCH  11  14
ATOM     14  C11 <0> d   1       3.212   2.806  -4.022  0.00  0.00    -0.028 A 
ATOM     15  C16 <0> d   1       3.333   2.588  -5.400  0.00  0.00     0.051 A 
ATOM     16  C15 <0> d   1       3.411   1.299  -5.889  0.00  0.00     0.105 A 
ATOM     17  C14 <0> d   1       3.370   0.216  -5.014  0.00  0.00     0.135 A 
ATOM     18  C13 <0> d   1       3.249   0.428  -3.642  0.00  0.00     0.105 A 
ATOM     19  C12 <0> d   1       3.177   1.715  -3.144  0.00  0.00     0.051 A 
BRANCH  16  20
ATOM     20  O2  <0> d   1       3.528   1.086  -7.227  0.00  0.00    -0.353 OA
ATOM     21  C17 <0> d   1       3.564   2.241  -8.067  0.00  0.00     0.210 C 
ENDBRANCH  16  20
BRANCH  17  22
ATOM     22  O3  <0> d   1       3.447  -1.051  -5.499  0.00  0.00    -0.351 OA
ATOM     23  C18 <0> d   1       4.752  -1.619  -5.625  0.00  0.00     0.210 C 
ENDBRANCH  17  22
BRANCH  18  24
ATOM     24  O4  <0> d   1       3.210  -0.632  -2.792  0.00  0.00    -0.353 OA
ATOM     25  C19 <0> d   1       3.016  -0.345  -1.405  0.00  0.00     0.210 C 
ENDBRANCH  18  24
ENDBRANCH  11  14
BRANCH   5  26
ATOM     26  C20 <0> d   1       1.965   1.869   1.284  0.00  0.00     0.279 C 
BRANCH  26  27
ATOM     27  N1  <0> d   1       0.542   1.504   1.260  0.00  0.00    -0.064 N 
ATOM     28  C24 <0> d   1       0.374   0.046   1.186  0.00  0.00     0.265 C 
ATOM     29  C23 <0> d   1      -1.117  -0.296   1.244  0.00  0.00     0.300 C 
ATOM     30  N2  <0> d   1      -1.812   0.369   0.133  0.00  0.00     0.093 N 
ATOM     31  C22 <0> d   1      -1.644   1.827   0.206  0.00  0.00     0.300 C 
ATOM     32  C21 <0> d   1      -0.153   2.169   0.149  0.00  0.00     0.265 C 
ATOM     33  H32 <0> d   1       0.090   1.852   2.200  0.00  0.00     0.280 HD
BRANCH  30  34
ATOM     34  C25 <0> d   1      -3.235   0.004   0.109  0.00  0.00     0.298 C 
BRANCH  34  35
ATOM     35  C26 <0> d   1      -3.841   0.401  -1.239  0.00  0.00     0.194 C 
BRANCH  35  36
ATOM     36  O6  <0> d   1      -3.231  -0.365  -2.280  0.00  0.00    -0.399 OA
ATOM     37  H31 <0> d   1      -3.540  -0.217  -3.325  0.00  0.00     0.209 HD
ENDBRANCH  35  36
ENDBRANCH  34  35
ENDBRANCH  30  34
ENDBRANCH  26  27
ENDBRANCH   5  26
TORSDOF 9
