REMARK  6 active torsions:
REMARK  status: ('A' for Active; 'I' for Inactive)
REMARK    1  A    between atoms: O1_2  and  C2_3 
REMARK    2  A    between atoms: C6_7  and  O2_9 
REMARK    3  A    between atoms: O2_9  and  C8_10 
REMARK    4  A    between atoms: C14_17  and  C18_25 
REMARK    5  A    between atoms: C16_20  and  C17_21 
REMARK    6  A    between atoms: C18_25  and  N1_26 
ROOT
ATOM      1  C8  <0> d   1      -2.587  -1.261   4.194  0.00  0.00     0.165 A 
ATOM      2  C9  <0> d   1      -3.537  -1.515   3.164  0.00  0.00     0.221 A 
ATOM      3  O3  <0> d   1      -4.652  -1.938   3.419  0.00  0.00    -0.284 OA
ATOM      4  C10 <0> d   1      -3.111  -1.261   1.778  0.00  0.00     0.052 A 
ATOM      5  C11 <0> d   1      -3.966  -1.495   0.700  0.00  0.00     0.021 A 
ATOM      6  C12 <0> d   1      -3.535  -1.248  -0.573  0.00  0.00     0.041 A 
ATOM      7  C13 <0> d   1      -2.248  -0.764  -0.799  0.00  0.00     0.118 A 
ATOM      8  C14 <0> d   1      -1.388  -0.527   0.259  0.00  0.00     0.041 A 
ATOM      9  C15 <0> d   1      -1.809  -0.777   1.558  0.00  0.00     0.101 A 
ATOM     10  O4  <0> d   1      -0.989  -0.560   2.607  0.00  0.00    -0.301 OA
ATOM     11  C16 <0> d   1      -1.365  -0.793   3.871  0.00  0.00     0.197 A 
ATOM     12  O6  <0> d   1      -1.834  -0.524  -2.070  0.00  0.00    -0.191 OA
ENDROOT
BRANCH   1  13
ATOM     13  O2  <0> d   1      -2.914  -1.479   5.498  0.00  0.00    -0.304 OA
BRANCH  13  14
ATOM     14  C6  <0> d   1      -3.475  -0.457   6.194  0.00  0.00     0.079 A 
ATOM     15  C5  <0> d   1      -3.693   0.767   5.577  0.00  0.00     0.037 A 
ATOM     16  C4  <0> d   1      -4.267   1.806   6.285  0.00  0.00     0.005 A 
ATOM     17  C3  <0> d   1      -4.617   1.633   7.610  0.00  0.00     0.037 A 
ATOM     18  C2  <0> d   1      -4.396   0.412   8.233  0.00  0.00     0.070 A 
ATOM     19  C7  <0> d   1      -3.825  -0.633   7.525  0.00  0.00     0.074 A 
BRANCH  18  20
ATOM     20  O1  <0> d   1      -4.740   0.243   9.537  0.00  0.00    -0.356 OA
ATOM     21  C1  <0> d   1      -5.324   1.363  10.205  0.00  0.00     0.210 C 
ENDBRANCH  18  20
ENDBRANCH  13  14
ENDBRANCH   1  13
BRANCH  11  22
ATOM     22  C17 <0> d   1      -0.380  -0.520   4.979  0.00  0.00     0.442 C 
ATOM     23  F1  <0> d   1       0.374  -1.673   5.227  0.00  0.00    -0.164 F 
ATOM     24  F2  <0> d   1       0.473   0.521   4.598  0.00  0.00    -0.164 F 
ATOM     25  F3  <0> d   1      -1.072  -0.156   6.139  0.00  0.00    -0.164 F 
ENDBRANCH  11  22
BRANCH   8  26
ATOM     26  C18 <0> d   1       0.002  -0.004   0.002  0.00  0.00     0.317 C 
BRANCH  26  27
ATOM     27  N1  <0> d   1      -0.018   1.465   0.010  0.00  0.00     0.097 N 
ATOM     28  C22 <0> d   1       1.347   2.010  -0.000  0.00  0.00     0.299 C 
ATOM     29  C21 <0> d   1       1.281   3.538   0.069  0.00  0.00     0.198 C 
ATOM     30  O5  <0> d   1       0.495   4.026  -1.021  0.00  0.00    -0.388 OA
ATOM     31  C20 <0> d   1      -0.841   3.516  -1.042  0.00  0.00     0.198 C 
ATOM     32  C19 <0> d   1      -0.796   1.987  -1.123  0.00  0.00     0.299 C 
ENDBRANCH  26  27
ENDBRANCH   8  26
TORSDOF 6
