REMARK  5 active torsions:
REMARK  status: ('A' for Active; 'I' for Inactive)
REMARK    1  A    between atoms: C2_2  and  N1_3 
REMARK    2  A    between atoms: N2_6  and  C7_9 
REMARK    3  A    between atoms: C7_9  and  C8_10 
REMARK    4  A    between atoms: C9_11  and  O5_32 
REMARK    5  A    between atoms: C15_18  and  C16_19 
ROOT
ATOM      1  C8  <0> d   1      -3.904  -4.229  -0.745  0.00  0.00     0.036 A 
ATOM      2  C9  <0> d   1      -3.767  -5.017  -1.877  0.00  0.00     0.076 A 
ATOM      3  C10 <0> d   1      -3.916  -6.399  -1.801  0.00  0.00     0.038 A 
ATOM      4  C11 <0> d   1      -4.200  -6.994  -0.604  0.00  0.00     0.021 A 
ATOM      5  C12 <0> d   1      -4.341  -6.213   0.544  0.00  0.00     0.051 A 
ATOM      6  C13 <0> d   1      -4.188  -4.819   0.480  0.00  0.00     0.101 A 
ATOM      7  O1  <0> d   1      -4.363  -4.285   1.709  0.00  0.00    -0.305 OA
ATOM      8  C14 <0> d   1      -4.626  -5.235   2.637  0.00  0.00     0.128 A 
ATOM      9  C15 <0> d   1      -4.850  -5.023   3.960  0.00  0.00     0.055 C 
ATOM     10  C24 <0> d   1      -4.638  -6.535   1.952  0.00  0.00     0.218 A 
ATOM     11  O4  <0> d   1      -4.838  -7.634   2.440  0.00  0.00    -0.284 OA
ENDROOT
BRANCH   9  12
ATOM     12  C16 <0> d   1      -4.717  -3.674   4.520  0.00  0.00     0.002 A 
ATOM     13  C21 <0> d   1      -4.590  -3.494   5.908  0.00  0.00     0.090 A 
ATOM     14  C20 <0> d   1      -4.453  -2.216   6.425  0.00  0.00     0.002 A 
ATOM     15  O2  <0> d   1      -4.601  -4.575   6.729  0.00  0.00    -0.325 OA
ATOM     16  C19 <0> d   1      -4.460  -1.123   5.579  0.00  0.00     0.036 A 
ATOM     17  C23 <0> d   1      -4.301  -2.008   7.911  0.00  0.00     0.212 C 
ATOM     18  C18 <0> d   1      -4.595  -1.293   4.210  0.00  0.00     0.035 A 
ATOM     19  C17 <0> d   1      -4.722  -2.557   3.675  0.00  0.00     0.038 A 
ATOM     20 Cl1  <0> d   1      -4.603   0.092   3.163  0.00  0.00    -0.084 Cl
ATOM     21  O3  <0> d   1      -4.714  -3.197   8.598  0.00  0.00    -0.362 OA
ATOM     22  C22 <0> d   1      -4.114  -4.382   8.060  0.00  0.00     0.345 C 
ENDBRANCH   9  12
BRANCH   1  23
ATOM     23  C7  <0> d   1      -3.740  -2.735  -0.843  0.00  0.00     0.279 C 
BRANCH  23  24
ATOM     24  N2  <0> d   1      -2.331  -2.381  -0.625  0.00  0.00    -0.064 N 
ATOM     25  C4  <0> d   1      -2.149  -0.940  -0.837  0.00  0.00     0.265 C 
ATOM     26  C3  <0> d   1      -0.678  -0.574  -0.628  0.00  0.00     0.300 C 
ATOM     27  N1  <0> d   1      -0.275  -0.940   0.737  0.00  0.00     0.091 N 
ATOM     28  C6  <0> d   1      -0.474  -2.377   0.973  0.00  0.00     0.300 C 
ATOM     29  C5  <0> d   1      -1.947  -2.727   0.750  0.00  0.00     0.265 C 
ATOM     30  H26 <0> d   1      -1.752  -2.893  -1.274  0.00  0.00     0.280 HD
BRANCH  27  31
ATOM     31  C2  <0> d   1       1.119  -0.553   0.995  0.00  0.00     0.268 C 
ATOM     32  C1  <0> d   1       1.234   0.973   0.984  0.00  0.00     0.037 C 
ENDBRANCH  27  31
ENDBRANCH  23  24
ENDBRANCH   1  23
BRANCH   2  33
ATOM     33  O5  <0> d   1      -3.485  -4.436  -3.071  0.00  0.00    -0.360 OA
ATOM     34  H25 <0> d   1      -2.539  -4.351  -3.253  0.00  0.00     0.217 HD
ENDBRANCH   2  33
TORSDOF 5
