REMARK  6 active torsions:
REMARK  status: ('A' for Active; 'I' for Inactive)
REMARK    1  A    between atoms: C2_2  and  O1_3 
REMARK    2  A    between atoms: O1_3  and  C3_4 
REMARK    3  A    between atoms: C3_4  and  C4_6 
REMARK    4  A    between atoms: C7_9  and  O3_12 
REMARK    5  A    between atoms: O3_12  and  C10_13 
REMARK    6  A    between atoms: C10_13  and  C11_14 
ROOT
ATOM      1  O3  <0> d   1      -1.623   2.439   1.371  0.00  0.00    -0.345 OA
ENDROOT
BRANCH   1   2
ATOM      2  C7  <0> d   1      -2.717   3.219   1.558  0.00  0.00     0.069 A 
ATOM      3  C6  <0> d   1      -3.141   3.520   2.847  0.00  0.00     0.038 A 
ATOM      4  C5  <0> d   1      -4.251   4.311   3.042  0.00  0.00     0.020 A 
ATOM      5  C4  <0> d   1      -4.951   4.813   1.941  0.00  0.00     0.039 A 
ATOM      6  C9  <0> d   1      -4.521   4.508   0.646  0.00  0.00     0.020 A 
ATOM      7  C8  <0> d   1      -3.408   3.720   0.460  0.00  0.00     0.038 A 
BRANCH   5   8
ATOM      8  C3  <0> d   1      -6.141   5.660   2.145  0.00  0.00     0.293 C 
ATOM      9  O2  <0> d   1      -6.513   5.924   3.271  0.00  0.00    -0.259 OA
BRANCH   8  10
ATOM     10  O1  <0> d   1      -6.814   6.143   1.082  0.00  0.00    -0.318 OA
BRANCH  10  11
ATOM     11  C2  <0> d   1      -7.975   6.970   1.357  0.00  0.00     0.174 C 
ATOM     12  C1  <0> d   1      -8.604   7.422   0.038  0.00  0.00     0.034 C 
ENDBRANCH  10  11
ENDBRANCH   8  10
ENDBRANCH   5   8
ENDBRANCH   1   2
BRANCH   1  13
ATOM     13  C10 <0> d   1      -1.242   2.169   0.020  0.00  0.00     0.238 C 
BRANCH  13  14
ATOM     14  C11 <0> d   1      -0.015   1.294   0.009  0.00  0.00     0.099 A 
ATOM     15  N1  <0> d   1       0.002  -0.004   0.002  0.00  0.00    -0.130 NA
ATOM     16  O4  <0> d   1       1.339  -0.463  -0.013  0.00  0.00    -0.212 OA
ATOM     17  C17 <0> d   1       2.174   0.595  -0.015  0.00  0.00     0.116 A 
ATOM     18  C12 <0> d   1       1.376   1.752  -0.002  0.00  0.00     0.029 A 
ATOM     19  C16 <0> d   1       3.557   0.719  -0.027  0.00  0.00     0.080 A 
ATOM     20  C13 <0> d   1       1.976   3.014   0.001  0.00  0.00     0.019 A 
ATOM     21  C14 <0> d   1       3.337   3.119  -0.012  0.00  0.00     0.041 A 
ATOM     22  C15 <0> d   1       4.134   1.976  -0.025  0.00  0.00     0.110 A 
ATOM     23  O5  <0> d   1       5.487   2.097  -0.036  0.00  0.00    -0.192 OA
ENDBRANCH  13  14
ENDBRANCH   1  13
TORSDOF 6
