REMARK  9 active torsions:
REMARK  status: ('A' for Active; 'I' for Inactive)
REMARK    1  A    between atoms: O1_2  and  C2_3 
REMARK    2  A    between atoms: C5_6  and  C8_9 
REMARK    3  A    between atoms: C12_14  and  O4_20 
REMARK    4  A    between atoms: O4_20  and  C17_21 
REMARK    5  A    between atoms: C17_21  and  C18_22 
REMARK    6  A    between atoms: C18_22  and  N1_23 
REMARK    7  A    between atoms: N2_26  and  C23_29 
REMARK    8  A    between atoms: C23_29  and  C24_30 
REMARK    9  A    between atoms: C24_30  and  O5_31 
ROOT
ATOM      1  C8  <0> d   1      -0.576   0.811  -0.135  0.00  0.00     0.048 A 
ATOM      2  C9  <0> d   1      -0.440  -0.532   0.013  0.00  0.00     0.159 A 
ATOM      3  O2  <0> d   1       0.751  -1.136   0.030  0.00  0.00    -0.321 OA
ATOM      4  C10 <0> d   1       1.918  -0.475  -0.096  0.00  0.00     0.091 A 
ATOM      5  C11 <0> d   1       3.126  -1.161  -0.070  0.00  0.00     0.075 A 
ATOM      6  C12 <0> d   1       4.316  -0.465  -0.200  0.00  0.00     0.071 A 
ATOM      7  C13 <0> d   1       4.315   0.919  -0.358  0.00  0.00     0.038 A 
ATOM      8  C14 <0> d   1       3.136   1.609  -0.387  0.00  0.00     0.021 A 
ATOM      9  C15 <0> d   1       1.929   0.922  -0.257  0.00  0.00     0.049 A 
ATOM     10  C16 <0> d   1       0.638   1.633  -0.281  0.00  0.00     0.197 A 
ATOM     11  O3  <0> d   1       0.577   2.843  -0.417  0.00  0.00    -0.286 OA
ENDROOT
BRANCH   6  12
ATOM     12  O4  <0> d   1       5.494  -1.138  -0.173  0.00  0.00    -0.349 OA
BRANCH  12  13
ATOM     13  C17 <0> d   1       6.687  -0.363  -0.312  0.00  0.00     0.206 C 
BRANCH  13  14
ATOM     14  C18 <0> d   1       7.905  -1.288  -0.258  0.00  0.00     0.299 C 
BRANCH  14  15
ATOM     15  N1  <0> d   1       7.889  -2.187  -1.420  0.00  0.00     0.093 N 
ATOM     16  C22 <0> d   1       8.302  -1.479  -2.639  0.00  0.00     0.300 C 
ATOM     17  C21 <0> d   1       8.196  -2.426  -3.837  0.00  0.00     0.265 C 
ATOM     18  N2  <0> d   1       9.043  -3.604  -3.602  0.00  0.00    -0.066 N 
ATOM     19  C20 <0> d   1       8.630  -4.312  -2.383  0.00  0.00     0.265 C 
ATOM     20  H29 <0> d   1      10.077  -3.256  -3.460  0.00  0.00     0.280 HD
ATOM     21  C19 <0> d   1       8.736  -3.365  -1.185  0.00  0.00     0.300 C 
BRANCH  18  22
ATOM     22  C23 <0> d   1       9.028  -4.503  -4.764  0.00  0.00     0.260 C 
BRANCH  22  23
ATOM     23  C24 <0> d   1       9.897  -3.914  -5.877  0.00  0.00     0.192 C 
BRANCH  23  24
ATOM     24  O5  <0> d   1      11.259  -3.877  -5.447  0.00  0.00    -0.399 OA
ATOM     25  H28 <0> d   1      12.037  -3.482  -6.118  0.00  0.00     0.209 HD
ENDBRANCH  23  24
ENDBRANCH  22  23
ENDBRANCH  18  22
ENDBRANCH  14  15
ENDBRANCH  13  14
ENDBRANCH  12  13
ENDBRANCH   6  12
BRANCH   1  26
ATOM     26  C5  <0> d   1      -1.920   1.437  -0.153  0.00  0.00    -0.020 A 
ATOM     27  C4  <0> d   1      -2.915   0.930  -0.988  0.00  0.00     0.015 A 
ATOM     28  C3  <0> d   1      -4.164   1.515  -1.003  0.00  0.00     0.037 A 
ATOM     29  C2  <0> d   1      -4.431   2.607  -0.189  0.00  0.00     0.068 A 
ATOM     30  C7  <0> d   1      -3.443   3.114   0.643  0.00  0.00     0.037 A 
ATOM     31  C6  <0> d   1      -2.193   2.530   0.667  0.00  0.00     0.015 A 
BRANCH  29  32
ATOM     32  O1  <0> d   1      -5.663   3.180  -0.206  0.00  0.00    -0.356 OA
ATOM     33  C1  <0> d   1      -5.869   4.301   0.656  0.00  0.00     0.210 C 
ENDBRANCH  29  32
ENDBRANCH   1  26
TORSDOF 9
