REMARK  6 active torsions:
REMARK  status: ('A' for Active; 'I' for Inactive)
REMARK    1  A    between atoms: C3_3  and  C15_20 
REMARK    2  A    between atoms: C4_4  and  C5_8 
REMARK    3  A    between atoms: C8_11  and  O2_15 
REMARK    4  A    between atoms: C10_13  and  O1_14 
REMARK    5  A    between atoms: O2_15  and  C11_16 
REMARK    6  A    between atoms: C11_16  and  C12_17 
ROOT
ATOM      1  C1  <0> d   1      -1.286   1.115   0.514  0.00  0.00     0.070 C 
ATOM      2  C2  <0> d   1      -0.564  -0.176   0.226  0.00  0.00     0.037 A 
ATOM      3  C3  <0> d   1      -0.761  -0.982  -0.855  0.00  0.00     0.029 A 
ATOM      4  C4  <0> d   1       0.121  -2.085  -0.732  0.00  0.00     0.103 A 
ATOM      5  N1  <0> d   1       0.807  -1.928   0.380  0.00  0.00    -0.173 NA
ATOM      6  N2  <0> d   1       0.396  -0.737   0.989  0.00  0.00    -0.281 N 
ATOM      7  H1  <0> d   1       0.742  -0.377   1.821  0.00  0.00     0.189 HD
ENDROOT
BRANCH   4   8
ATOM      8  C5  <0> d   1       0.248  -3.213  -1.685  0.00  0.00     0.029 A 
ATOM      9  C10 <0> d   1       0.269  -4.530  -1.214  0.00  0.00     0.081 A 
ATOM     10  C9  <0> d   1       0.383  -5.580  -2.109  0.00  0.00     0.074 A 
ATOM     11  C8  <0> d   1       0.486  -5.324  -3.468  0.00  0.00     0.071 A 
ATOM     12  C7  <0> d   1       0.471  -4.016  -3.936  0.00  0.00     0.038 A 
ATOM     13  C6  <0> d   1       0.353  -2.965  -3.052  0.00  0.00     0.019 A 
BRANCH   9  14
ATOM     14  O1  <0> d   1       0.172  -4.779   0.118  0.00  0.00    -0.360 OA
ATOM     15  H8  <0> d   1      -0.735  -4.890   0.433  0.00  0.00     0.217 HD
ENDBRANCH   9  14
BRANCH  11  16
ATOM     16  O2  <0> d   1       0.603  -6.356  -4.345  0.00  0.00    -0.347 OA
BRANCH  16  17
ATOM     17  C11 <0> d   1       0.705  -6.021  -5.730  0.00  0.00     0.208 C 
BRANCH  17  18
ATOM     18  C12 <0> d   1       0.826  -7.284  -6.544  0.00  0.00    -0.069 C 
ATOM     19  C13 <0> d   1       0.824  -8.450  -5.948  0.00  0.00     0.016 C 
ATOM     20  C14 <0> d   1       0.949  -7.205  -8.044  0.00  0.00     0.044 C 
ENDBRANCH  17  18
ENDBRANCH  16  17
ENDBRANCH  11  16
ENDBRANCH   4   8
BRANCH   3  21
ATOM     21  C15 <0> d   1      -1.724  -0.748  -1.960  0.00  0.00    -0.022 A 
ATOM     22  C20 <0> d   1      -1.544   0.326  -2.829  0.00  0.00     0.012 A 
ATOM     23  C19 <0> d   1      -2.438   0.535  -3.859  0.00  0.00     0.001 A 
ATOM     24  C18 <0> d   1      -3.520  -0.312  -4.021  0.00  0.00     0.000 A 
ATOM     25  C17 <0> d   1      -3.707  -1.377  -3.158  0.00  0.00     0.001 A 
ATOM     26  C16 <0> d   1      -2.815  -1.599  -2.129  0.00  0.00     0.012 A 
ENDBRANCH   3  21
TORSDOF 6
