REMARK  5 active torsions:
REMARK  status: ('A' for Active; 'I' for Inactive)
REMARK    1  A    between atoms: C2_2  and  N1_3 
REMARK    2  A    between atoms: N2_6  and  C7_9 
REMARK    3  A    between atoms: C7_9  and  C8_10 
REMARK    4  A    between atoms: C9_11  and  O3_29 
REMARK    5  A    between atoms: C15_19  and  C18_22 
ROOT
ATOM      1  C8  <0> d   1      -4.136   2.462   2.384  0.00  0.00     0.035 A 
ATOM      2  C9  <0> d   1      -4.855   2.227   1.223  0.00  0.00     0.076 A 
ATOM      3  C10 <0> d   1      -4.211   1.776   0.073  0.00  0.00     0.038 A 
ATOM      4  C11 <0> d   1      -2.864   1.561   0.075  0.00  0.00     0.017 A 
ATOM      5  C12 <0> d   1      -2.118   1.799   1.239  0.00  0.00     0.006 A 
ATOM      6  C13 <0> d   1      -2.765   2.248   2.405  0.00  0.00     0.101 A 
ATOM      7  O1  <0> d   1      -2.065   2.478   3.537  0.00  0.00    -0.273 OA
ATOM      8  C14 <0> d   1      -0.736   2.279   3.586  0.00  0.00     0.300 A 
ATOM      9  O2  <0> d   1      -0.129   2.493   4.619  0.00  0.00    -0.259 OA
ATOM     10  C15 <0> d   1      -0.018   1.807   2.400  0.00  0.00     0.057 A 
ATOM     11  C16 <0> d   1      -0.718   1.572   1.248  0.00  0.00    -0.032 A 
ATOM     12  C17 <0> d   1      -0.013   1.086   0.008  0.00  0.00     0.050 C 
ENDROOT
BRANCH   1  13
ATOM     13  C7  <0> d   1      -4.843   2.950   3.622  0.00  0.00     0.279 C 
BRANCH  13  14
ATOM     14  N2  <0> d   1      -4.862   4.418   3.629  0.00  0.00    -0.064 N 
ATOM     15  C4  <0> d   1      -5.742   4.929   4.689  0.00  0.00     0.265 C 
ATOM     16  C3  <0> d   1      -5.797   6.457   4.612  0.00  0.00     0.300 C 
ATOM     17  N1  <0> d   1      -4.439   7.001   4.750  0.00  0.00     0.091 N 
ATOM     18  C6  <0> d   1      -3.559   6.490   3.690  0.00  0.00     0.300 C 
ATOM     19  C5  <0> d   1      -3.504   4.963   3.767  0.00  0.00     0.265 C 
ATOM     20  H26 <0> d   1      -5.265   4.754   2.662  0.00  0.00     0.280 HD
BRANCH  17  21
ATOM     21  C2  <0> d   1      -4.458   8.470   4.757  0.00  0.00     0.268 C 
ATOM     22  C1  <0> d   1      -3.076   8.996   5.149  0.00  0.00     0.037 C 
ENDBRANCH  17  21
ENDBRANCH  13  14
ENDBRANCH   1  13
BRANCH   2  23
ATOM     23  O3  <0> d   1      -6.196   2.436   1.206  0.00  0.00    -0.360 OA
ATOM     24  H25 <0> d   1      -6.770   2.251   0.287  0.00  0.00     0.217 HD
ENDBRANCH   2  23
BRANCH  10  25
ATOM     25  C18 <0> d   1       1.447   1.587   2.447  0.00  0.00    -0.019 A 
ATOM     26  C23 <0> d   1       2.310   2.664   2.646  0.00  0.00     0.014 A 
ATOM     27  C22 <0> d   1       3.673   2.454   2.689  0.00  0.00     0.024 A 
ATOM     28  C21 <0> d   1       4.184   1.177   2.535  0.00  0.00     0.034 A 
ATOM     29  C20 <0> d   1       3.332   0.104   2.337  0.00  0.00     0.024 A 
ATOM     30 Cl1  <0> d   1       5.900   0.919   2.590  0.00  0.00    -0.084 Cl
ATOM     31  C19 <0> d   1       1.967   0.302   2.298  0.00  0.00     0.014 A 
ENDBRANCH  10  25
TORSDOF 5
