REMARK  4 active torsions:
REMARK  status: ('A' for Active; 'I' for Inactive)
REMARK    1  A    between atoms: N1_6  and  C7_8 
REMARK    2  A    between atoms: C7_8  and  C8_9 
REMARK    3  A    between atoms: C14_16  and  C23_26 
REMARK    4  A    between atoms: C15_17  and  C17_20 
ROOT
ATOM      1  C8  <0> d   1      -1.267   3.137   0.031  0.00  0.00     0.039 A 
ATOM      2  C9  <0> d   1      -1.230   1.752   0.017  0.00  0.00     0.118 A 
ATOM      3  C10 <0> d   1      -0.013   1.076   0.008  0.00  0.00     0.041 A 
ATOM      4  C11 <0> d   1       1.163   1.772   0.001  0.00  0.00     0.021 A 
ATOM      5  C12 <0> d   1       1.142   3.167   0.008  0.00  0.00     0.050 A 
ATOM      6  C13 <0> d   1      -0.082   3.859   0.024  0.00  0.00     0.101 A 
ATOM      7  O1  <0> d   1      -0.101   5.207   0.030  0.00  0.00    -0.303 OA
ATOM      8  C14 <0> d   1       1.005   5.955   0.023  0.00  0.00     0.174 A 
ATOM      9  C15 <0> d   1       2.252   5.417   0.008  0.00  0.00     0.064 A 
ATOM     10  C16 <0> d   1       2.390   3.951  -0.000  0.00  0.00     0.198 A 
ATOM     11  O2  <0> d   1       3.483   3.412  -0.013  0.00  0.00    -0.286 OA
ATOM     12  O3  <0> d   1      -2.391   1.048   0.019  0.00  0.00    -0.191 OA
ENDROOT
BRANCH   1  13
ATOM     13  C7  <0> d   1      -2.591   3.857   0.048  0.00  0.00     0.279 C 
BRANCH  13  14
ATOM     14  N1  <0> d   1      -3.035   4.098  -1.331  0.00  0.00    -0.067 N 
ATOM     15  C5  <0> d   1      -2.875   2.892  -2.154  0.00  0.00     0.235 C 
ATOM     16  C4  <0> d   1      -3.207   3.219  -3.611  0.00  0.00     0.028 C 
ATOM     17  C3  <0> d   1      -4.648   3.732  -3.699  0.00  0.00     0.007 C 
ATOM     18  C2  <0> d   1      -4.800   4.959  -2.796  0.00  0.00     0.007 C 
ATOM     19  C1  <0> d   1      -6.251   5.441  -2.830  0.00  0.00     0.011 C 
ATOM     20  C6  <0> d   1      -4.421   4.581  -1.362  0.00  0.00     0.239 C 
ATOM     21  H22 <0> d   1      -2.396   4.884  -1.761  0.00  0.00     0.280 HD
ENDBRANCH  13  14
ENDBRANCH   1  13
BRANCH   8  22
ATOM     22  C23 <0> d   1       0.864   7.456   0.031  0.00  0.00     0.440 C 
ATOM     23  F1  <0> d   1       0.807   7.926  -1.285  0.00  0.00    -0.164 F 
ATOM     24  F2  <0> d   1      -0.310   7.810   0.704  0.00  0.00    -0.164 F 
ATOM     25  F3  <0> d   1       1.964   8.024   0.682  0.00  0.00    -0.164 F 
ENDBRANCH   8  22
BRANCH   9  26
ATOM     26  C17 <0> d   1       3.452   6.289  -0.000  0.00  0.00    -0.019 A 
ATOM     27  C22 <0> d   1       4.328   6.284   1.084  0.00  0.00     0.012 A 
ATOM     28  C21 <0> d   1       5.443   7.098   1.071  0.00  0.00     0.001 A 
ATOM     29  C20 <0> d   1       5.691   7.917  -0.015  0.00  0.00     0.000 A 
ATOM     30  C19 <0> d   1       4.825   7.927  -1.094  0.00  0.00     0.001 A 
ATOM     31  C18 <0> d   1       3.710   7.113  -1.094  0.00  0.00     0.012 A 
ENDBRANCH   9  26
TORSDOF 4
