REMARK  7 active torsions:
REMARK  status: ('A' for Active; 'I' for Inactive)
REMARK    1  A    between atoms: C5_5  and  C15_18 
REMARK    2  A    between atoms: C9_10  and  C10_11 
REMARK    3  A    between atoms: C10_11  and  C11_12 
REMARK    4  A    between atoms: C15_18  and  N1_19 
REMARK    5  A    between atoms: N2_22  and  C20_25 
REMARK    6  A    between atoms: C20_25  and  C21_26 
REMARK    7  A    between atoms: C21_26  and  O3_27 
ROOT
ATOM      1  C1  <0> d   1      -6.945   1.187  -0.009  0.00  0.00     0.049 C 
ATOM      2  C2  <0> d   1      -6.104   2.437   0.008  0.00  0.00    -0.042 A 
ATOM      3  C3  <0> d   1      -6.703   3.665   0.060  0.00  0.00     0.048 A 
ATOM      4  C4  <0> d   1      -5.929   4.822   0.076  0.00  0.00     0.118 A 
ATOM      5  C5  <0> d   1      -4.546   4.745   0.039  0.00  0.00     0.039 A 
ATOM      6  C6  <0> d   1      -3.923   3.506  -0.014  0.00  0.00     0.102 A 
ATOM      7  C7  <0> d   1      -4.713   2.345  -0.029  0.00  0.00     0.057 A 
ATOM      8  C8  <0> d   1      -3.773   1.212  -0.087  0.00  0.00     0.219 A 
ATOM      9  O1  <0> d   1      -4.045   0.023  -0.116  0.00  0.00    -0.284 OA
ATOM     10  C9  <0> d   1      -2.481   1.802  -0.101  0.00  0.00     0.128 A 
ATOM     11  O2  <0> d   1      -2.622   3.147  -0.052  0.00  0.00    -0.305 OA
ATOM     12  O4  <0> d   1      -6.535   6.036   0.127  0.00  0.00    -0.191 OA
ENDROOT
BRANCH   5  13
ATOM     13  C15 <0> d   1      -3.720   6.005   0.056  0.00  0.00     0.279 C 
BRANCH  13  14
ATOM     14  N1  <0> d   1      -3.486   6.456  -1.322  0.00  0.00    -0.064 N 
ATOM     15  C19 <0> d   1      -2.892   7.800  -1.343  0.00  0.00     0.265 C 
ATOM     16  C18 <0> d   1      -2.738   8.265  -2.793  0.00  0.00     0.300 C 
ATOM     17  N2  <0> d   1      -1.896   7.308  -3.525  0.00  0.00     0.093 N 
ATOM     18  C17 <0> d   1      -2.491   5.964  -3.504  0.00  0.00     0.300 C 
ATOM     19  C16 <0> d   1      -2.644   5.500  -2.054  0.00  0.00     0.265 C 
ATOM     20  H24 <0> d   1      -4.461   6.508  -1.829  0.00  0.00     0.280 HD
BRANCH  17  21
ATOM     21  C20 <0> d   1      -1.663   7.759  -4.903  0.00  0.00     0.298 C 
BRANCH  21  22
ATOM     22  C21 <0> d   1      -0.635   8.893  -4.902  0.00  0.00     0.194 C 
BRANCH  22  23
ATOM     23  O3  <0> d   1       0.623   8.394  -4.441  0.00  0.00    -0.399 OA
ATOM     24  H23 <0> d   1       1.489   9.069  -4.372  0.00  0.00     0.209 HD
ENDBRANCH  22  23
ENDBRANCH  21  22
ENDBRANCH  17  21
ENDBRANCH  13  14
ENDBRANCH   5  13
BRANCH  10  25
ATOM     25  C10 <0> d   1      -1.297   1.125  -0.151  0.00  0.00     0.060 C 
BRANCH  25  26
ATOM     26  C11 <0> d   1      -0.077   1.838  -0.160  0.00  0.00     0.007 A 
ATOM     27  S1  <0> d   1       0.198   3.600  -0.112  0.00  0.00    -0.102 SA
ATOM     28  C14 <0> d   1       1.930   3.596  -0.164  0.00  0.00     0.050 A 
ATOM     29  C13 <0> d   1       2.238   2.272  -0.210  0.00  0.00     0.008 A 
ATOM     30  C12 <0> d   1       1.225   1.347  -0.207  0.00  0.00     0.019 A 
ENDBRANCH  25  26
ENDBRANCH  10  25
TORSDOF 7
