REMARK  5 active torsions:
REMARK  status: ('A' for Active; 'I' for Inactive)
REMARK    1  A    between atoms: C2_2  and  C3_3 
REMARK    2  A    between atoms: C7_8  and  C18_23 
REMARK    3  A    between atoms: C10_12  and  C12_15 
REMARK    4  A    between atoms: C11_13  and  O3_14 
REMARK    5  A    between atoms: C12_15  and  N1_16 
ROOT
ATOM      1  C3  <0> d   1      -1.433  -0.715  -0.245  0.00  0.00    -0.024 A 
ATOM      2  C4  <0> d   1      -1.959  -0.978   0.988  0.00  0.00     0.028 A 
ATOM      3  C5  <0> d   1      -3.287  -1.388   1.099  0.00  0.00     0.050 A 
ATOM      4  C6  <0> d   1      -3.889  -1.697   2.410  0.00  0.00     0.201 C 
ATOM      5  O1  <0> d   1      -3.345  -1.398   3.459  0.00  0.00    -0.286 OA
ATOM      6  C7  <0> d   1      -5.193  -2.391   2.374  0.00  0.00     0.088 C 
ATOM      7  C8  <0> d   1      -5.853  -2.455   1.184  0.00  0.00     0.068 C 
ATOM      8  O2  <0> d   1      -5.378  -1.908   0.066  0.00  0.00    -0.313 OA
ATOM      9  C9  <0> d   1      -4.090  -1.526  -0.047  0.00  0.00     0.100 A 
ATOM     10  C10 <0> d   1      -3.539  -1.258  -1.292  0.00  0.00     0.038 A 
ATOM     11  C11 <0> d   1      -2.219  -0.849  -1.387  0.00  0.00     0.082 A 
ATOM     12  C17 <0> d   1      -7.176  -3.176   1.129  0.00  0.00     0.078 C 
ENDROOT
BRANCH   6  13
ATOM     13  C18 <0> d   1      -5.764  -2.998   3.593  0.00  0.00     0.125 A 
ATOM     14  N3  <0> d   1      -5.175  -3.992   4.328  0.00  0.00    -0.335 N 
ATOM     15  C24 <0> d   1      -6.022  -4.277   5.383  0.00  0.00     0.062 A 
ATOM     16  C25 <0> d   1      -3.887  -4.632   4.050  0.00  0.00     0.158 C 
ATOM     17  C19 <0> d   1      -7.130  -3.424   5.238  0.00  0.00     0.060 A 
ATOM     18  C23 <0> d   1      -5.971  -5.169   6.444  0.00  0.00     0.032 A 
ATOM     19  N2  <0> d   1      -6.914  -2.671   4.131  0.00  0.00    -0.340 N 
ATOM     20  C20 <0> d   1      -8.171  -3.486   6.169  0.00  0.00     0.032 A 
ATOM     21  H28 <0> d   1      -7.518  -1.993   3.790  0.00  0.00     0.167 HD
ATOM     22  C21 <0> d   1      -8.104  -4.371   7.207  0.00  0.00     0.002 A 
ATOM     23  C22 <0> d   1      -7.011  -5.213   7.350  0.00  0.00     0.002 A 
ENDBRANCH   6  13
BRANCH   1  24
ATOM     24  C2  <0> d   1       0.002  -0.271  -0.370  0.00  0.00     0.037 C 
ATOM     25  C1  <0> d   1       0.061   1.258  -0.414  0.00  0.00     0.010 C 
ENDBRANCH   1  24
BRANCH  10  26
ATOM     26  C12 <0> d   1      -4.376  -1.405  -2.537  0.00  0.00     0.317 C 
BRANCH  26  27
ATOM     27  N1  <0> d   1      -5.043  -0.130  -2.831  0.00  0.00     0.097 N 
ATOM     28  C16 <0> d   1      -5.676  -0.161  -4.158  0.00  0.00     0.299 C 
ATOM     29  C15 <0> d   1      -6.306   1.204  -4.449  0.00  0.00     0.198 C 
ATOM     30  O4  <0> d   1      -7.238   1.523  -3.412  0.00  0.00    -0.388 OA
ATOM     31  C14 <0> d   1      -6.656   1.562  -2.106  0.00  0.00     0.198 C 
ATOM     32  C13 <0> d   1      -6.029   0.201  -1.792  0.00  0.00     0.299 C 
ENDBRANCH  26  27
ENDBRANCH  10  26
BRANCH  11  33
ATOM     33  O3  <0> d   1      -1.684  -0.583  -2.606  0.00  0.00    -0.359 OA
ATOM     34  H7  <0> d   1      -1.277  -1.349  -3.033  0.00  0.00     0.217 HD
ENDBRANCH  11  33
TORSDOF 5
