REMARK  9 active torsions:
REMARK  status: ('A' for Active; 'I' for Inactive)
REMARK    1  A    between atoms: C4_4  and  C7_7 
REMARK    2  A    between atoms: C9_12  and  C10_13 
REMARK    3  A    between atoms: C13_16  and  O2_20 
REMARK    4  A    between atoms: C15_18  and  O1_19 
REMARK    5  A    between atoms: O2_20  and  C16_21 
REMARK    6  A    between atoms: C16_21  and  C17_22 
REMARK    7  A    between atoms: C17_22  and  N3_23 
REMARK    8  A    between atoms: N4_26  and  C22_29 
REMARK    9  A    between atoms: C22_29  and  C23_30 
ROOT
ATOM      1  C10 <0> d   1       3.097  -2.288   1.769  0.00  0.00     0.026 A 
ATOM      2  C11 <0> d   1       3.336  -2.067   3.127  0.00  0.00     0.019 A 
ATOM      3  C12 <0> d   1       2.490  -2.606   4.072  0.00  0.00     0.038 A 
ATOM      4  C13 <0> d   1       1.398  -3.370   3.678  0.00  0.00     0.071 A 
ATOM      5  C14 <0> d   1       1.153  -3.595   2.331  0.00  0.00     0.074 A 
ATOM      6  C15 <0> d   1       1.992  -3.054   1.374  0.00  0.00     0.081 A 
ENDROOT
BRANCH   4   7
ATOM      7  O2  <0> d   1       0.569  -3.899   4.615  0.00  0.00    -0.349 OA
BRANCH   7   8
ATOM      8  C16 <0> d   1       0.880  -3.628   5.983  0.00  0.00     0.206 C 
BRANCH   8   9
ATOM      9  C17 <0> d   1      -0.158  -4.301   6.884  0.00  0.00     0.299 C 
BRANCH   9  10
ATOM     10  N3  <0> d   1      -0.056  -5.760   6.744  0.00  0.00     0.093 N 
ATOM     11  C21 <0> d   1      -1.183  -6.432   7.405  0.00  0.00     0.302 C 
ATOM     12  C20 <0> d   1      -1.083  -7.941   7.168  0.00  0.00     0.303 C 
ATOM     13  N4  <0> d   1       0.200  -8.432   7.690  0.00  0.00     0.096 N 
ATOM     14  C19 <0> d   1       1.327  -7.760   7.029  0.00  0.00     0.303 C 
ATOM     15  C18 <0> d   1       1.227  -6.251   7.265  0.00  0.00     0.302 C 
BRANCH  13  16
ATOM     16  C22 <0> d   1       0.302  -9.891   7.550  0.00  0.00     0.311 C 
BRANCH  16  17
ATOM     17  C23 <0> d   1      -0.720 -10.554   8.437  0.00  0.00    -0.027 A 
ATOM     18  C28 <0> d   1      -1.985 -10.826   7.949  0.00  0.00     0.048 A 
ATOM     19  C27 <0> d   1      -2.924 -11.440   8.762  0.00  0.00     0.105 A 
ATOM     20  C26 <0> d   1      -2.594 -11.771  10.074  0.00  0.00     0.105 A 
ATOM     21  O3  <0> d   1      -4.215 -11.816   8.529  0.00  0.00    -0.323 OA
ATOM     22  C25 <0> d   1      -1.327 -11.490  10.558  0.00  0.00     0.040 A 
ATOM     23  O4  <0> d   1      -3.679 -12.354  10.662  0.00  0.00    -0.323 OA
ATOM     24  C24 <0> d   1      -0.393 -10.883   9.739  0.00  0.00     0.012 A 
ATOM     25  C29 <0> d   1      -4.540 -12.747   9.578  0.00  0.00     0.352 C 
ENDBRANCH  16  17
ENDBRANCH  13  16
ENDBRANCH   9  10
ENDBRANCH   8   9
ENDBRANCH   7   8
ENDBRANCH   4   7
BRANCH   6  26
ATOM     26  O1  <0> d   1       1.750  -3.268   0.055  0.00  0.00    -0.360 OA
ATOM     27  H11 <0> d   1       2.176  -4.061  -0.300  0.00  0.00     0.217 HD
ENDBRANCH   6  26
BRANCH   1  28
ATOM     28  C9  <0> d   1       4.002  -1.712   0.754  0.00  0.00     0.075 A 
ATOM     29  C7  <0> d   1       4.837  -2.417  -0.103  0.00  0.00     0.022 A 
ATOM     30  C8  <0> d   1       5.509  -1.473  -0.901  0.00  0.00     0.153 A 
ATOM     31  N1  <0> d   1       5.115  -0.278  -0.551  0.00  0.00    -0.186 NA
ATOM     32  N2  <0> d   1       4.177  -0.389   0.482  0.00  0.00    -0.277 N 
ATOM     33  H1  <0> d   1       3.728   0.348   0.924  0.00  0.00     0.189 HD
BRANCH  29  34
ATOM     34  C4  <0> d   1       4.988  -3.890  -0.169  0.00  0.00    -0.022 A 
ATOM     35  C3  <0> d   1       4.782  -4.561  -1.374  0.00  0.00     0.012 A 
ATOM     36  C2  <0> d   1       4.925  -5.933  -1.429  0.00  0.00     0.001 A 
ATOM     37  C1  <0> d   1       5.270  -6.642  -0.293  0.00  0.00     0.000 A 
ATOM     38  C6  <0> d   1       5.475  -5.981   0.905  0.00  0.00     0.001 A 
ATOM     39  C5  <0> d   1       5.336  -4.610   0.973  0.00  0.00     0.012 A 
ENDBRANCH  29  34
ENDBRANCH   1  28
TORSDOF 9
