REMARK  7 active torsions:
REMARK  status: ('A' for Active; 'I' for Inactive)
REMARK    1  A    between atoms: C6_6  and  C7_7 
REMARK    2  A    between atoms: C9_12  and  C10_13 
REMARK    3  A    between atoms: C13_16  and  O2_20 
REMARK    4  A    between atoms: C15_18  and  O1_19 
REMARK    5  A    between atoms: O2_20  and  C16_21 
REMARK    6  A    between atoms: C16_21  and  C17_22 
REMARK    7  A    between atoms: C17_22  and  N3_23 
ROOT
ATOM      1  C10 <0> d   1      -1.200  -3.039  -2.386  0.00  0.00     0.029 A 
ATOM      2  C11 <0> d   1       0.054  -2.437  -2.305  0.00  0.00     0.019 A 
ATOM      3  C12 <0> d   1       0.982  -2.641  -3.305  0.00  0.00     0.038 A 
ATOM      4  C13 <0> d   1       0.670  -3.445  -4.394  0.00  0.00     0.071 A 
ATOM      5  C14 <0> d   1      -0.576  -4.048  -4.482  0.00  0.00     0.074 A 
ATOM      6  C15 <0> d   1      -1.511  -3.854  -3.480  0.00  0.00     0.081 A 
ENDROOT
BRANCH   1   7
ATOM      7  C9  <0> d   1      -2.200  -2.822  -1.313  0.00  0.00     0.102 A 
ATOM      8  C7  <0> d   1      -1.961  -2.916   0.082  0.00  0.00     0.022 A 
ATOM      9  C8  <0> d   1      -3.135  -2.640   0.717  0.00  0.00     0.124 A 
ATOM     10  N1  <0> d   1      -4.066  -2.390  -0.226  0.00  0.00    -0.288 N 
ATOM     11  H1  <0> d   1      -4.995  -2.164  -0.060  0.00  0.00     0.188 HD
ATOM     12  N2  <0> d   1      -3.466  -2.511  -1.485  0.00  0.00    -0.174 NA
BRANCH   8  13
ATOM     13  C6  <0> d   1      -0.669  -3.248   0.731  0.00  0.00    -0.022 A 
ATOM     14  C1  <0> d   1      -0.117  -2.381   1.672  0.00  0.00     0.014 A 
ATOM     15  C2  <0> d   1       1.085  -2.695   2.273  0.00  0.00     0.020 A 
ATOM     16  C3  <0> d   1       1.742  -3.867   1.942  0.00  0.00     0.011 A 
ATOM     17  C4  <0> d   1       1.198  -4.731   1.007  0.00  0.00     0.020 A 
ATOM     18 Br1  <0> d   1       3.390  -4.290   2.768  0.00  0.00    -0.051 Br
ATOM     19  C5  <0> d   1      -0.004  -4.427   0.401  0.00  0.00     0.014 A 
ENDBRANCH   8  13
ENDBRANCH   1   7
BRANCH   6  20
ATOM     20  O1  <0> d   1      -2.730  -4.448  -3.562  0.00  0.00    -0.360 OA
ATOM     21  H10 <0> d   1      -3.397  -3.917  -4.020  0.00  0.00     0.217 HD
ENDBRANCH   6  20
BRANCH   4  22
ATOM     22  O2  <0> d   1       1.589  -3.642  -5.376  0.00  0.00    -0.349 OA
BRANCH  22  23
ATOM     23  C16 <0> d   1       2.852  -2.991  -5.223  0.00  0.00     0.206 C 
BRANCH  23  24
ATOM     24  C17 <0> d   1       3.747  -3.327  -6.417  0.00  0.00     0.299 C 
BRANCH  24  25
ATOM     25  N3  <0> d   1       3.152  -2.781  -7.644  0.00  0.00     0.094 N 
ATOM     26  C21 <0> d   1       3.344  -1.325  -7.720  0.00  0.00     0.298 C 
ATOM     27  C20 <0> d   1       2.659  -0.791  -8.980  0.00  0.00     0.198 C 
ATOM     28  O3  <0> d   1       3.186  -1.467 -10.126  0.00  0.00    -0.388 OA
ATOM     29  C19 <0> d   1       3.015  -2.886 -10.085  0.00  0.00     0.198 C 
ATOM     30  C18 <0> d   1       3.703  -3.442  -8.836  0.00  0.00     0.298 C 
ENDBRANCH  24  25
ENDBRANCH  23  24
ENDBRANCH  22  23
ENDBRANCH   4  22
TORSDOF 7
