REMARK  6 active torsions:
REMARK  status: ('A' for Active; 'I' for Inactive)
REMARK    1  A    between atoms: C2_2  and  C4_4 
REMARK    2  A    between atoms: C10_10  and  C13_15 
REMARK    3  A    between atoms: C13_15  and  N1_16 
REMARK    4  A    between atoms: N2_19  and  C18_22 
REMARK    5  A    between atoms: C18_22  and  C19_23 
REMARK    6  A    between atoms: C19_23  and  O3_24 
ROOT
ATOM      1  C4  <0> d   1      -5.102   1.790  -2.059  0.00  0.00    -0.054 A 
ATOM      2  C5  <0> d   1      -5.231   0.409  -2.091  0.00  0.00     0.010 A 
ATOM      3  C6  <0> d   1      -4.286  -0.400  -1.496  0.00  0.00     0.039 A 
ATOM      4  C7  <0> d   1      -3.192   0.171  -0.857  0.00  0.00     0.090 A 
ATOM      5  C8  <0> d   1      -3.065   1.570  -0.827  0.00  0.00     0.007 A 
ATOM      6  C9  <0> d   1      -4.034   2.373  -1.436  0.00  0.00     0.022 A 
ATOM      7  C10 <0> d   1      -1.904   2.164  -0.155  0.00  0.00    -0.011 A 
ATOM      8  C11 <0> d   1      -1.001   1.331   0.420  0.00  0.00     0.092 A 
ATOM      9  C12 <0> d   1      -1.192  -0.066   0.352  0.00  0.00     0.288 A 
ATOM     10  O1  <0> d   1      -0.373  -0.803   0.869  0.00  0.00    -0.260 OA
ATOM     11  O2  <0> d   1      -2.255  -0.603  -0.269  0.00  0.00    -0.275 OA
ENDROOT
BRANCH   7  12
ATOM     12  C13 <0> d   1      -1.725   3.659  -0.098  0.00  0.00     0.312 C 
BRANCH  12  13
ATOM     13  N1  <0> d   1      -1.305   4.153  -1.416  0.00  0.00     0.096 N 
ATOM     14  C17 <0> d   1      -1.483   5.609  -1.514  0.00  0.00     0.303 C 
ATOM     15  C16 <0> d   1      -1.110   6.072  -2.925  0.00  0.00     0.302 C 
ATOM     16  N2  <0> d   1       0.281   5.694  -3.210  0.00  0.00     0.093 N 
ATOM     17  C15 <0> d   1       0.459   4.238  -3.112  0.00  0.00     0.302 C 
ATOM     18  C14 <0> d   1       0.086   3.775  -1.702  0.00  0.00     0.303 C 
BRANCH  16  19
ATOM     19  C18 <0> d   1       0.701   6.188  -4.528  0.00  0.00     0.298 C 
BRANCH  19  20
ATOM     20  C19 <0> d   1       0.967   7.692  -4.448  0.00  0.00     0.194 C 
BRANCH  20  21
ATOM     21  O3  <0> d   1       2.071   7.934  -3.573  0.00  0.00    -0.399 OA
ATOM     22  H26 <0> d   1       2.411   8.964  -3.389  0.00  0.00     0.209 HD
ENDBRANCH  20  21
ENDBRANCH  19  20
ENDBRANCH  16  19
ENDBRANCH  12  13
ENDBRANCH   7  12
BRANCH   1  23
ATOM     23  C2  <0> d   1      -6.147   2.655  -2.716  0.00  0.00     0.010 C 
ATOM     24  C1  <0> d   1      -6.220   2.321  -4.208  0.00  0.00     0.015 C 
ATOM     25  C3  <0> d   1      -7.507   2.392  -2.067  0.00  0.00     0.015 C 
ENDBRANCH   1  23
TORSDOF 6
