REMARK  7 active torsions:
REMARK  status: ('A' for Active; 'I' for Inactive)
REMARK    1  A    between atoms: C2_2  and  C4_4 
REMARK    2  A    between atoms: C4_4  and  O1_5 
REMARK    3  A    between atoms: O1_5  and  C5_6 
REMARK    4  A    between atoms: C7_8  and  O2_9 
REMARK    5  A    between atoms: C8_10  and  C9_11 
REMARK    6  A    between atoms: C10_12  and  C13_17 
REMARK    7  A    between atoms: C16_20  and  O3_23 
ROOT
ATOM      1  C9  <0> d   1       0.252  -5.527  -5.565  0.00  0.00     0.083 A 
ATOM      2  C10 <0> d   1      -0.090  -5.010  -6.831  0.00  0.00     0.021 A 
ATOM      3  C11 <0> d   1      -0.309  -5.913  -7.870  0.00  0.00     0.132 A 
ATOM      4  N1  <0> d   1      -0.189  -7.209  -7.632  0.00  0.00    -0.253 NA
ATOM      5  C12 <0> d   1       0.133  -7.656  -6.434  0.00  0.00     0.233 A 
ATOM      6  N2  <0> d   1       0.355  -6.846  -5.419  0.00  0.00    -0.240 NA
ENDROOT
BRANCH   1   7
ATOM      7  C8  <0> d   1       0.496  -4.621  -4.421  0.00  0.00     0.027 A 
ATOM      8  C7  <0> d   1      -0.155  -4.838  -3.200  0.00  0.00     0.081 A 
ATOM      9  C6  <0> d   1       0.079  -3.986  -2.135  0.00  0.00     0.074 A 
ATOM     10  C5  <0> d   1       0.956  -2.921  -2.278  0.00  0.00     0.071 A 
ATOM     11  C21 <0> d   1       1.598  -2.701  -3.490  0.00  0.00     0.038 A 
ATOM     12  C20 <0> d   1       1.376  -3.546  -4.556  0.00  0.00     0.019 A 
BRANCH   8  13
ATOM     13  O2  <0> d   1      -1.013  -5.882  -3.063  0.00  0.00    -0.360 OA
ATOM     14  H20 <0> d   1      -1.929  -5.670  -3.288  0.00  0.00     0.217 HD
ENDBRANCH   8  13
BRANCH  10  15
ATOM     15  O1  <0> d   1       1.183  -2.086  -1.231  0.00  0.00    -0.347 OA
BRANCH  15  16
ATOM     16  C4  <0> d   1       2.092  -1.006  -1.447  0.00  0.00     0.208 C 
BRANCH  16  17
ATOM     17  C2  <0> d   1       2.218  -0.193  -0.184  0.00  0.00    -0.069 C 
ATOM     18  C1  <0> d   1       3.123   1.011  -0.149  0.00  0.00     0.044 C 
ATOM     19  C3  <0> d   1       1.540  -0.534   0.884  0.00  0.00     0.016 C 
ENDBRANCH  16  17
ENDBRANCH  15  16
ENDBRANCH  10  15
ENDBRANCH   1   7
BRANCH   2  20
ATOM     20  C13 <0> d   1      -0.213  -3.549  -7.050  0.00  0.00    -0.022 A 
ATOM     21  C18 <0> d   1       0.540  -2.926  -8.044  0.00  0.00     0.015 A 
ATOM     22  C17 <0> d   1       0.418  -1.567  -8.250  0.00  0.00     0.037 A 
ATOM     23  C16 <0> d   1      -0.445  -0.819  -7.460  0.00  0.00     0.068 A 
ATOM     24  C15 <0> d   1      -1.192  -1.436  -6.466  0.00  0.00     0.037 A 
ATOM     25  C14 <0> d   1      -1.079  -2.794  -6.259  0.00  0.00     0.015 A 
BRANCH  23  26
ATOM     26  O3  <0> d   1      -0.558   0.520  -7.662  0.00  0.00    -0.356 OA
ATOM     27  C19 <0> d   1       0.240   1.090  -8.702  0.00  0.00     0.210 C 
ENDBRANCH  23  26
ENDBRANCH   2  20
TORSDOF 7
