REMARK  8 active torsions:
REMARK  status: ('A' for Active; 'I' for Inactive)
REMARK    1  A    between atoms: C2_2  and  C3_3 
REMARK    2  A    between atoms: C7_8  and  C21_28 
REMARK    3  A    between atoms: C8_9  and  C18_23 
REMARK    4  A    between atoms: C10_12  and  C12_15 
REMARK    5  A    between atoms: C11_13  and  O3_14 
REMARK    6  A    between atoms: C12_15  and  N1_16 
REMARK    7  A    between atoms: C18_23  and  O5_25 
REMARK    8  A    between atoms: O5_25  and  C19_26 
ROOT
ATOM      1  C3  <0> d   1      -6.993  -3.797  -1.970  0.00  0.00    -0.024 A 
ATOM      2  C4  <0> d   1      -5.797  -3.149  -2.084  0.00  0.00     0.028 A 
ATOM      3  C5  <0> d   1      -5.348  -2.333  -1.044  0.00  0.00     0.050 A 
ATOM      4  C6  <0> d   1      -4.065  -1.616  -1.140  0.00  0.00     0.199 A 
ATOM      5  O1  <0> d   1      -3.354  -1.710  -2.125  0.00  0.00    -0.286 OA
ATOM      6  C7  <0> d   1      -3.677  -0.781   0.018  0.00  0.00     0.065 A 
ATOM      7  C8  <0> d   1      -4.532  -0.716   1.097  0.00  0.00     0.166 A 
ATOM      8  O2  <0> d   1      -5.694  -1.388   1.127  0.00  0.00    -0.302 OA
ATOM      9  C9  <0> d   1      -6.122  -2.175   0.121  0.00  0.00     0.101 A 
ATOM     10  C10 <0> d   1      -7.336  -2.842   0.220  0.00  0.00     0.038 A 
ATOM     11  C11 <0> d   1      -7.767  -3.647  -0.821  0.00  0.00     0.082 A 
ENDROOT
BRANCH   6  12
ATOM     12  C21 <0> d   1      -2.404  -0.028   0.016  0.00  0.00    -0.016 A 
ATOM     13  C26 <0> d   1      -1.187  -0.711   0.004  0.00  0.00     0.052 A 
ATOM     14  C25 <0> d   1       0.002  -0.004   0.002  0.00  0.00     0.102 A 
ATOM     15  C24 <0> d   1      -0.017   1.388   0.010  0.00  0.00     0.102 A 
ATOM     16  O6  <0> d   1       1.181  -0.684  -0.006  0.00  0.00    -0.346 OA
ATOM     17  C23 <0> d   1      -1.229   2.067   0.019  0.00  0.00     0.040 A 
ATOM     18  O7  <0> d   1       1.143   2.099   0.002  0.00  0.00    -0.346 OA
ATOM     19  C22 <0> d   1      -2.417   1.368   0.026  0.00  0.00     0.015 A 
ATOM     20  C28 <0> d   1       2.334   1.392   0.366  0.00  0.00     0.202 C 
ATOM     21  C27 <0> d   1       2.347   0.054  -0.386  0.00  0.00     0.202 C 
ENDBRANCH   6  12
BRANCH   7  22
ATOM     22  C18 <0> d   1      -4.159   0.117   2.254  0.00  0.00     0.318 C 
ATOM     23  O4  <0> d   1      -3.112   0.734   2.247  0.00  0.00    -0.257 OA
BRANCH  22  24
ATOM     24  O5  <0> d   1      -4.980   0.196   3.321  0.00  0.00    -0.316 OA
BRANCH  24  25
ATOM     25  C19 <0> d   1      -4.549   1.036   4.424  0.00  0.00     0.175 C 
ATOM     26  C20 <0> d   1      -5.601   1.000   5.534  0.00  0.00     0.034 C 
ENDBRANCH  24  25
ENDBRANCH  22  24
ENDBRANCH   7  22
BRANCH   1  27
ATOM     27  C2  <0> d   1      -7.479  -4.678  -3.092  0.00  0.00     0.037 C 
ATOM     28  C1  <0> d   1      -8.413  -3.878  -4.001  0.00  0.00     0.010 C 
ENDBRANCH   1  27
BRANCH  10  29
ATOM     29  C12 <0> d   1      -8.183  -2.689   1.457  0.00  0.00     0.317 C 
BRANCH  29  30
ATOM     30  N1  <0> d   1      -9.100  -1.554   1.286  0.00  0.00     0.096 N 
ATOM     31  C16 <0> d   1     -10.099  -1.518   2.363  0.00  0.00     0.303 C 
ATOM     32  C15 <0> d   1     -11.081  -0.372   2.105  0.00  0.00     0.302 C 
ATOM     33  N2  <0> d   1     -10.343   0.896   2.032  0.00  0.00     0.087 N 
ATOM     34  C14 <0> d   1      -9.344   0.859   0.955  0.00  0.00     0.302 C 
ATOM     35  C17 <0> d   1     -11.260   2.030   1.861  0.00  0.00     0.310 C 
ATOM     36  C13 <0> d   1      -8.362  -0.286   1.213  0.00  0.00     0.303 C 
ENDBRANCH  29  30
ENDBRANCH  10  29
BRANCH  11  37
ATOM     37  O3  <0> d   1      -8.954  -4.297  -0.720  0.00  0.00    -0.359 OA
ATOM     38  H7  <0> d   1      -9.569  -4.182   0.184  0.00  0.00     0.217 HD
ENDBRANCH  11  37
TORSDOF 8
