REMARK  5 active torsions:
REMARK  status: ('A' for Active; 'I' for Inactive)
REMARK    1  A    between atoms: C4_4  and  C7_7 
REMARK    2  A    between atoms: N1_19  and  C18_22 
REMARK    3  A    between atoms: C18_22  and  C19_23 
REMARK    4  A    between atoms: C19_23  and  C20_24 
REMARK    5  A    between atoms: C20_24  and  N2_25 
ROOT
ATOM      1  C7  <0> d   1       3.697  -0.687  -0.038  0.00  0.00     0.051 C 
ATOM      2  C8  <0> d   1       4.086  -1.477   1.015  0.00  0.00     0.032 C 
ATOM      3  C9  <0> d   1       5.354  -2.111   0.947  0.00  0.00    -0.000 A 
ATOM      4  C10 <0> d   1       5.718  -3.080   1.893  0.00  0.00     0.017 A 
ATOM      5  C11 <0> d   1       6.922  -3.709   1.791  0.00  0.00     0.038 A 
ATOM      6  C12 <0> d   1       7.805  -3.395   0.755  0.00  0.00     0.082 A 
ATOM      7  C13 <0> d   1       7.471  -2.428  -0.177  0.00  0.00     0.038 A 
ATOM      8  C14 <0> d   1       6.252  -1.772  -0.082  0.00  0.00     0.100 A 
ATOM      9  O1  <0> d   1       5.932  -0.793  -0.963  0.00  0.00    -0.273 OA
ATOM     10  C15 <0> d   1       4.611  -0.587  -1.188  0.00  0.00     0.299 C 
ATOM     11  O2  <0> d   1       4.193  -0.324  -2.301  0.00  0.00    -0.259 OA
ATOM     12  C16 <0> d   1       8.413  -2.080  -1.301  0.00  0.00     0.319 C 
ATOM     13  N1  <0> d   1       9.762  -2.568  -0.983  0.00  0.00     0.116 N 
ATOM     14  C17 <0> d   1       9.704  -3.976  -0.556  0.00  0.00     0.447 C 
ATOM     15  O3  <0> d   1       8.995  -4.047   0.684  0.00  0.00    -0.321 OA
ENDROOT
BRANCH  13  16
ATOM     16  C18 <0> d   1      10.665  -2.403  -2.130  0.00  0.00     0.277 C 
BRANCH  16  17
ATOM     17  C19 <0> d   1      12.104  -2.685  -1.690  0.00  0.00     0.058 C 
BRANCH  17  18
ATOM     18  C20 <0> d   1      13.044  -2.513  -2.884  0.00  0.00     0.236 C 
BRANCH  18  19
ATOM     19  N2  <0> d   1      14.425  -2.783  -2.462  0.00  0.00    -0.067 N 
ATOM     20  C24 <0> d   1      15.313  -2.736  -3.632  0.00  0.00     0.261 C 
ATOM     21  C23 <0> d   1      16.751  -3.018  -3.190  0.00  0.00     0.195 C 
ATOM     22  O4  <0> d   1      17.136  -2.061  -2.199  0.00  0.00    -0.388 OA
ATOM     23  C22 <0> d   1      16.286  -2.053  -1.049  0.00  0.00     0.195 C 
ATOM     24  C21 <0> d   1      14.847  -1.768  -1.487  0.00  0.00     0.261 C 
ATOM     25  H27 <0> d   1      14.475  -3.698  -2.039  0.00  0.00     0.280 HD
ENDBRANCH  18  19
ENDBRANCH  17  18
ENDBRANCH  16  17
ENDBRANCH  13  16
BRANCH   1  26
ATOM     26  C4  <0> d   1       2.403   0.033  -0.021  0.00  0.00    -0.020 A 
ATOM     27  C3  <0> d   1       2.377   1.427  -0.013  0.00  0.00     0.012 A 
ATOM     28  C2  <0> d   1       1.169   2.093   0.002  0.00  0.00     0.001 A 
ATOM     29  C1  <0> d   1      -0.017   1.379   0.010  0.00  0.00     0.000 A 
ATOM     30  C6  <0> d   1       0.002  -0.004   0.002  0.00  0.00     0.001 A 
ATOM     31  C5  <0> d   1       1.205  -0.680  -0.013  0.00  0.00     0.012 A 
ENDBRANCH   1  26
TORSDOF 5
