REMARK  4 active torsions:
REMARK  status: ('A' for Active; 'I' for Inactive)
REMARK    1  A    between atoms: N1_5  and  C7_8 
REMARK    2  A    between atoms: C7_8  and  C8_9 
REMARK    3  A    between atoms: C15_17  and  C17_20 
REMARK    4  A    between atoms: C20_23  and  O3_26 
ROOT
ATOM      1  C8  <0> d   1       0.232   5.868  -2.778  0.00  0.00     0.039 A 
ATOM      2  C9  <0> d   1      -1.113   6.150  -2.953  0.00  0.00     0.118 A 
ATOM      3  C10 <0> d   1      -1.605   6.509  -4.206  0.00  0.00     0.041 A 
ATOM      4  C11 <0> d   1      -0.766   6.587  -5.280  0.00  0.00     0.021 A 
ATOM      5  C12 <0> d   1       0.591   6.306  -5.120  0.00  0.00     0.050 A 
ATOM      6  C13 <0> d   1       1.100   5.948  -3.859  0.00  0.00     0.100 A 
ATOM      7  O1  <0> d   1       2.412   5.682  -3.705  0.00  0.00    -0.320 OA
ATOM      8  C14 <0> d   1       3.294   5.742  -4.706  0.00  0.00     0.159 A 
ATOM      9  C15 <0> d   1       2.941   6.079  -5.973  0.00  0.00     0.048 A 
ATOM     10  C16 <0> d   1       1.527   6.380  -6.257  0.00  0.00     0.197 A 
ATOM     11  O2  <0> d   1       1.151   6.689  -7.375  0.00  0.00    -0.286 OA
ATOM     12  O4  <0> d   1      -1.959   6.076  -1.894  0.00  0.00    -0.191 OA
ENDROOT
BRANCH   1  13
ATOM     13  C7  <0> d   1       0.752   5.481  -1.418  0.00  0.00     0.279 C 
BRANCH  13  14
ATOM     14  N1  <0> d   1       0.678   4.023  -1.262  0.00  0.00    -0.067 N 
ATOM     15  C4  <0> d   1      -0.717   3.564  -1.251  0.00  0.00     0.235 C 
ATOM     16  C3  <0> d   1      -0.752   2.034  -1.234  0.00  0.00     0.032 C 
ATOM     17  C2  <0> d   1      -0.019   1.526   0.010  0.00  0.00    -0.015 C 
ATOM     18  C1  <0> d   1       0.002  -0.004   0.002  0.00  0.00     0.010 C 
ATOM     19  C6  <0> d   1       1.417   2.057  -0.000  0.00  0.00     0.032 C 
ATOM     20  C5  <0> d   1       1.390   3.586  -0.053  0.00  0.00     0.235 C 
ATOM     21  H25 <0> d   1       1.176   3.563  -2.128  0.00  0.00     0.280 HD
ENDBRANCH  13  14
ENDBRANCH   1  13
BRANCH   9  22
ATOM     22  C17 <0> d   1       3.956   6.133  -7.053  0.00  0.00    -0.020 A 
ATOM     23  C22 <0> d   1       5.142   6.840  -6.862  0.00  0.00     0.015 A 
ATOM     24  C21 <0> d   1       6.085   6.888  -7.868  0.00  0.00     0.037 A 
ATOM     25  C20 <0> d   1       5.853   6.232  -9.069  0.00  0.00     0.068 A 
ATOM     26  C19 <0> d   1       4.674   5.526  -9.262  0.00  0.00     0.037 A 
ATOM     27  C18 <0> d   1       3.730   5.470  -8.258  0.00  0.00     0.015 A 
BRANCH  25  28
ATOM     28  O3  <0> d   1       6.784   6.281 -10.058  0.00  0.00    -0.356 OA
ATOM     29  C23 <0> d   1       6.481   5.584 -11.268  0.00  0.00     0.210 C 
ENDBRANCH  25  28
ENDBRANCH   9  22
TORSDOF 4
