REMARK  3 active torsions:
REMARK  status: ('A' for Active; 'I' for Inactive)
REMARK    1  A    between atoms: C3_3  and  C14_18 
REMARK    2  A    between atoms: C9_10  and  C11_13 
REMARK    3  A    between atoms: C11_13  and  N1_14 
ROOT
ATOM      1  C1  <0> d   1      -1.672  -1.044  -4.944  0.00  0.00     0.077 C 
ATOM      2  C2  <0> d   1      -1.552  -2.080  -3.856  0.00  0.00     0.065 A 
ATOM      3  C3  <0> d   1      -1.516  -3.392  -4.206  0.00  0.00     0.054 A 
ATOM      4  C4  <0> d   1      -1.399  -4.405  -3.143  0.00  0.00     0.198 A 
ATOM      5  O1  <0> d   1      -1.361  -5.597  -3.397  0.00  0.00    -0.286 OA
ATOM      6  C5  <0> d   1      -1.329  -3.908  -1.757  0.00  0.00     0.050 A 
ATOM      7  C6  <0> d   1      -1.216  -4.785  -0.678  0.00  0.00     0.021 A 
ATOM      8  C7  <0> d   1      -1.153  -4.291   0.594  0.00  0.00     0.041 A 
ATOM      9  C8  <0> d   1      -1.200  -2.917   0.817  0.00  0.00     0.118 A 
ATOM     10  C9  <0> d   1      -1.312  -2.034  -0.243  0.00  0.00     0.039 A 
ATOM     11  C10 <0> d   1      -1.383  -2.519  -1.542  0.00  0.00     0.100 A 
ATOM     12  O2  <0> d   1      -1.485  -1.673  -2.586  0.00  0.00    -0.313 OA
ATOM     13  O3  <0> d   1      -1.136  -2.439   2.086  0.00  0.00    -0.191 OA
ENDROOT
BRANCH   3  14
ATOM     14  C14 <0> d   1      -1.593  -3.797  -5.631  0.00  0.00    -0.019 A 
ATOM     15  C19 <0> d   1      -2.688  -4.527  -6.092  0.00  0.00     0.014 A 
ATOM     16  C18 <0> d   1      -2.755  -4.901  -7.418  0.00  0.00     0.024 A 
ATOM     17  C17 <0> d   1      -1.739  -4.552  -8.291  0.00  0.00     0.034 A 
ATOM     18  C16 <0> d   1      -0.649  -3.828  -7.838  0.00  0.00     0.024 A 
ATOM     19 Cl1  <0> d   1      -1.830  -5.026  -9.958  0.00  0.00    -0.084 Cl
ATOM     20  C15 <0> d   1      -0.575  -3.444  -6.514  0.00  0.00     0.014 A 
ENDBRANCH   3  14
BRANCH  10  21
ATOM     21  C11 <0> d   1      -1.362  -0.549   0.012  0.00  0.00     0.278 C 
BRANCH  21  22
ATOM     22  N1  <0> d   1       0.002  -0.004   0.002  0.00  0.00    -0.075 N 
ATOM     23  C12 <0> d   1      -0.018   1.465   0.010  0.00  0.00     0.269 C 
ATOM     24  C13 <0> d   1       0.786  -0.526   1.129  0.00  0.00     0.269 C 
ATOM     25  H18 <0> d   1       0.490  -0.331  -0.928  0.00  0.00     0.279 HD
ENDBRANCH  21  22
ENDBRANCH  10  21
TORSDOF 3
