REMARK  6 active torsions:
REMARK  status: ('A' for Active; 'I' for Inactive)
REMARK    1  A    between atoms: O1_2  and  C2_3 
REMARK    2  A    between atoms: C5_6  and  C8_9 
REMARK    3  A    between atoms: C14_17  and  O3_21 
REMARK    4  A    between atoms: O3_21  and  C17_22 
REMARK    5  A    between atoms: C17_22  and  C18_23 
REMARK    6  A    between atoms: C18_23  and  N3_24 
ROOT
ATOM      1  C8  <0> d   1      -5.988  -2.667   0.684  0.00  0.00     0.020 A 
ATOM      2  C9  <0> d   1      -6.916  -2.813  -0.324  0.00  0.00     0.121 A 
ATOM      3  N1  <0> d   1      -7.386  -4.088  -0.295  0.00  0.00    -0.310 N 
ATOM      4  N2  <0> d   1      -6.750  -4.773   0.748  0.00  0.00    -0.299 N 
ATOM      5  C10 <0> d   1      -5.882  -3.906   1.354  0.00  0.00     0.074 A 
ATOM      6  C11 <0> d   1      -5.036  -4.197   2.451  0.00  0.00     0.043 A 
ATOM      7  C12 <0> d   1      -5.361  -5.232   3.341  0.00  0.00     0.020 A 
ATOM      8  C13 <0> d   1      -4.545  -5.510   4.396  0.00  0.00     0.038 A 
ATOM      9  C14 <0> d   1      -3.378  -4.773   4.608  0.00  0.00     0.072 A 
ATOM     10  C15 <0> d   1      -3.029  -3.748   3.750  0.00  0.00     0.092 A 
ATOM     11  C16 <0> d   1      -3.848  -3.447   2.656  0.00  0.00     0.187 A 
ATOM     12  O2  <0> d   1      -3.546  -2.543   1.886  0.00  0.00    -0.287 OA
ATOM     13  H9  <0> d   1      -8.050  -4.460  -0.895  0.00  0.00     0.186 HD
ATOM     14  H10 <0> d   1      -6.897  -5.700   0.995  0.00  0.00     0.187 HD
ENDROOT
BRANCH   1  15
ATOM     15  C5  <0> d   1      -5.231  -1.432   1.004  0.00  0.00    -0.022 A 
ATOM     16  C4  <0> d   1      -5.444  -0.777   2.216  0.00  0.00     0.015 A 
ATOM     17  C3  <0> d   1      -4.738   0.371   2.511  0.00  0.00     0.037 A 
ATOM     18  C2  <0> d   1      -3.818   0.875   1.602  0.00  0.00     0.068 A 
ATOM     19  C7  <0> d   1      -3.608   0.228   0.392  0.00  0.00     0.037 A 
ATOM     20  C6  <0> d   1      -4.307  -0.923   0.093  0.00  0.00     0.015 A 
BRANCH  18  21
ATOM     21  O1  <0> d   1      -3.125   2.006   1.896  0.00  0.00    -0.356 OA
ATOM     22  C1  <0> d   1      -3.390   2.620   3.159  0.00  0.00     0.210 C 
ENDBRANCH  18  21
ENDBRANCH   1  15
BRANCH   9  23
ATOM     23  O3  <0> d   1      -2.580  -5.066   5.665  0.00  0.00    -0.349 OA
BRANCH  23  24
ATOM     24  C17 <0> d   1      -1.400  -4.275   5.827  0.00  0.00     0.203 C 
BRANCH  24  25
ATOM     25  C18 <0> d   1      -0.634  -4.750   7.063  0.00  0.00     0.261 C 
BRANCH  25  26
ATOM     26  N3  <0> d   1      -0.188  -6.135   6.862  0.00  0.00    -0.065 N 
ATOM     27  C22 <0> d   1       0.804  -6.177   5.778  0.00  0.00     0.261 C 
ATOM     28  C21 <0> d   1       1.266  -7.622   5.570  0.00  0.00     0.195 C 
ATOM     29  O4  <0> d   1       1.805  -8.126   6.795  0.00  0.00    -0.388 OA
ATOM     30  C20 <0> d   1       0.883  -8.082   7.888  0.00  0.00     0.195 C 
ATOM     31  C19 <0> d   1       0.420  -6.639   8.101  0.00  0.00     0.261 C 
ATOM     32  H26 <0> d   1      -0.979  -6.710   6.616  0.00  0.00     0.280 HD
ENDBRANCH  25  26
ENDBRANCH  24  25
ENDBRANCH  23  24
ENDBRANCH   9  23
TORSDOF 6
