REMARK  5 active torsions:
REMARK  status: ('A' for Active; 'I' for Inactive)
REMARK    1  A    between atoms: C2_2  and  N1_3 
REMARK    2  A    between atoms: N2_6  and  C7_9 
REMARK    3  A    between atoms: C7_9  and  C8_10 
REMARK    4  A    between atoms: C9_11  and  O4_27 
REMARK    5  A    between atoms: C15_18  and  C16_19 
ROOT
ATOM      1  C8  <0> d   1       3.437   3.501   1.490  0.00  0.00     0.038 A 
ATOM      2  C9  <0> d   1       3.390   4.385   0.424  0.00  0.00     0.076 A 
ATOM      3  C10 <0> d   1       3.325   5.758   0.645  0.00  0.00     0.038 A 
ATOM      4  C11 <0> d   1       3.318   6.249   1.921  0.00  0.00     0.021 A 
ATOM      5  C12 <0> d   1       3.370   5.372   3.003  0.00  0.00     0.051 A 
ATOM      6  C13 <0> d   1       3.430   3.984   2.791  0.00  0.00     0.101 A 
ATOM      7  O1  <0> d   1       3.472   3.362   3.989  0.00  0.00    -0.305 OA
ATOM      8  C14 <0> d   1       3.444   4.250   5.009  0.00  0.00     0.129 A 
ATOM      9  C15 <0> d   1       3.472   3.940   6.337  0.00  0.00     0.078 C 
ATOM     10  C21 <0> d   1       3.378   5.561   4.464  0.00  0.00     0.218 A 
ATOM     11  O3  <0> d   1       3.338   6.617   5.074  0.00  0.00    -0.284 OA
ENDROOT
BRANCH   1  12
ATOM     12  C7  <0> d   1       3.501   2.017   1.237  0.00  0.00     0.317 C 
BRANCH  12  13
ATOM     13  N2  <0> d   1       2.138   1.472   1.171  0.00  0.00     0.096 N 
ATOM     14  C4  <0> d   1       1.419   1.992  -0.001  0.00  0.00     0.303 C 
ATOM     15  C3  <0> d   1      -0.018   1.465   0.010  0.00  0.00     0.302 C 
ATOM     16  N1  <0> d   1       0.002  -0.004   0.002  0.00  0.00     0.091 N 
ATOM     17  C6  <0> d   1       0.721  -0.525   1.173  0.00  0.00     0.302 C 
ATOM     18  C5  <0> d   1       2.158   0.003   1.162  0.00  0.00     0.303 C 
BRANCH  16  19
ATOM     19  C2  <0> d   1      -1.361  -0.549  -0.064  0.00  0.00     0.268 C 
ATOM     20  C1  <0> d   1      -1.296  -2.055  -0.321  0.00  0.00     0.037 C 
ENDBRANCH  16  19
ENDBRANCH  12  13
ENDBRANCH   1  12
BRANCH   2  21
ATOM     21  O4  <0> d   1       3.402   3.908  -0.847  0.00  0.00    -0.360 OA
ATOM     22  H24 <0> d   1       3.366   4.606  -1.697  0.00  0.00     0.217 HD
ENDBRANCH   2  21
BRANCH   9  23
ATOM     23  C16 <0> d   1       3.538   2.589   6.746  0.00  0.00     0.078 A 
ATOM     24  O2  <0> d   1       3.571   1.513   5.932  0.00  0.00    -0.316 OA
ATOM     25  C19 <0> d   1       3.636   0.397   6.672  0.00  0.00     0.050 A 
ATOM     26  C18 <0> d   1       3.635   0.734   7.981  0.00  0.00     0.035 A 
ATOM     27  C20 <0> d   1       3.693  -1.008   6.131  0.00  0.00     0.076 C 
ATOM     28  C17 <0> d   1       3.573   2.134   8.050  0.00  0.00     0.040 A 
ENDBRANCH   9  23
TORSDOF 5
