REMARK  8 active torsions:
REMARK  status: ('A' for Active; 'I' for Inactive)
REMARK    1  A    between atoms: N1_4  and  C7_9 
REMARK    2  A    between atoms: C7_9  and  C8_10 
REMARK    3  A    between atoms: C8_10  and  O2_11 
REMARK    4  A    between atoms: O2_11  and  C9_12 
REMARK    5  A    between atoms: C12_15  and  C15_19 
REMARK    6  A    between atoms: C16_20  and  C18_25 
REMARK    7  A    between atoms: C21_28  and  O5_33 
REMARK    8  A    between atoms: C22_29  and  O4_31 
ROOT
ATOM      1  C9  <0> d   1       6.309   0.399  -1.502  0.00  0.00     0.071 A 
ATOM      2  C10 <0> d   1       6.540   1.520  -2.289  0.00  0.00     0.038 A 
ATOM      3  C11 <0> d   1       7.765   2.153  -2.253  0.00  0.00     0.019 A 
ATOM      4  C12 <0> d   1       8.775   1.667  -1.425  0.00  0.00     0.032 A 
ATOM      5  C13 <0> d   1       8.543   0.538  -0.633  0.00  0.00     0.122 A 
ATOM      6  C14 <0> d   1       7.308  -0.087  -0.672  0.00  0.00     0.077 A 
ATOM      7  O3  <0> d   1       9.523   0.060   0.176  0.00  0.00    -0.191 OA
ENDROOT
BRANCH   4   8
ATOM      8  C15 <0> d   1      10.094   2.344  -1.385  0.00  0.00     0.102 A 
ATOM      9  C16 <0> d   1      10.869   2.729  -2.508  0.00  0.00     0.022 A 
ATOM     10  C17 <0> d   1      12.005   3.318  -2.038  0.00  0.00     0.124 A 
ATOM     11  N2  <0> d   1      11.950   3.306  -0.690  0.00  0.00    -0.288 N 
ATOM     12  H3  <0> d   1      12.626   3.660  -0.092  0.00  0.00     0.188 HD
ATOM     13  N3  <0> d   1      10.749   2.700  -0.302  0.00  0.00    -0.174 NA
BRANCH   9  14
ATOM     14  C18 <0> d   1      10.510   2.527  -3.933  0.00  0.00    -0.019 A 
ATOM     15  C23 <0> d   1      10.502   3.610  -4.811  0.00  0.00     0.052 A 
ATOM     16  C22 <0> d   1      10.173   3.416  -6.141  0.00  0.00     0.102 A 
ATOM     17  C21 <0> d   1       9.839   2.144  -6.597  0.00  0.00     0.101 A 
ATOM     18  C20 <0> d   1       9.841   1.069  -5.721  0.00  0.00     0.040 A 
ATOM     19  C19 <0> d   1      10.175   1.256  -4.395  0.00  0.00     0.015 A 
BRANCH  16  20
ATOM     20  O4  <0> d   1      10.169   4.470  -7.001  0.00  0.00    -0.353 OA
ATOM     21  C24 <0> d   1      10.522   5.746  -6.464  0.00  0.00     0.210 C 
ENDBRANCH  16  20
BRANCH  17  22
ATOM     22  O5  <0> d   1       9.510   1.955  -7.903  0.00  0.00    -0.353 OA
ATOM     23  C25 <0> d   1       9.179   0.624  -8.303  0.00  0.00     0.210 C 
ENDBRANCH  17  22
ENDBRANCH   9  14
ENDBRANCH   4   8
BRANCH   1  24
ATOM     24  O2  <0> d   1       5.100  -0.219  -1.542  0.00  0.00    -0.349 OA
BRANCH  24  25
ATOM     25  C8  <0> d   1       4.117   0.334  -2.419  0.00  0.00     0.206 C 
BRANCH  25  26
ATOM     26  C7  <0> d   1       2.831  -0.490  -2.328  0.00  0.00     0.299 C 
BRANCH  26  27
ATOM     27  N1  <0> d   1       2.276  -0.384  -0.972  0.00  0.00     0.095 N 
ATOM     28  C3  <0> d   1       1.619   0.916  -0.772  0.00  0.00     0.303 C 
ATOM     29  C2  <0> d   1       1.109   1.008   0.668  0.00  0.00     0.146 C 
ATOM     30  C1  <0> d   1       2.294   0.951   1.635  0.00  0.00     0.041 C 
ATOM     31  O1  <0> d   1       0.228  -0.089   0.928  0.00  0.00    -0.378 OA
ATOM     32  C5  <0> d   1       0.836  -1.371   0.743  0.00  0.00     0.146 C 
ATOM     33  C4  <0> d   1       1.344  -1.486  -0.697  0.00  0.00     0.303 C 
ATOM     34  C6  <0> d   1      -0.195  -2.469   1.011  0.00  0.00     0.041 C 
ENDBRANCH  26  27
ENDBRANCH  25  26
ENDBRANCH  24  25
ENDBRANCH   1  24
TORSDOF 8
