REMARK  5 active torsions:
REMARK  status: ('A' for Active; 'I' for Inactive)
REMARK    1  A    between atoms: C4_4  and  C7_7 
REMARK    2  A    between atoms: C11_11  and  O2_29 
REMARK    3  A    between atoms: C12_12  and  C14_16 
REMARK    4  A    between atoms: C14_16  and  N2_17 
REMARK    5  A    between atoms: N3_20  and  C19_23 
ROOT
ATOM      1  C7  <0> d   1       4.488  -0.329   0.398  0.00  0.00     0.107 A 
ATOM      2  C8  <0> d   1       4.572  -1.693   0.945  0.00  0.00     0.033 A 
ATOM      3  C9  <0> d   1       3.685  -2.500   1.659  0.00  0.00     0.020 A 
ATOM      4  C10 <0> d   1       4.062  -3.756   2.039  0.00  0.00     0.038 A 
ATOM      5  C11 <0> d   1       5.329  -4.238   1.719  0.00  0.00     0.076 A 
ATOM      6  C12 <0> d   1       6.221  -3.452   1.012  0.00  0.00     0.040 A 
ATOM      7  C13 <0> d   1       5.851  -2.172   0.619  0.00  0.00     0.124 A 
ATOM      8  O1  <0> d   1       6.484  -1.195  -0.062  0.00  0.00    -0.211 OA
ATOM      9  N1  <0> d   1       5.628  -0.078  -0.190  0.00  0.00    -0.126 NA
ENDROOT
BRANCH   6  10
ATOM     10  C14 <0> d   1       7.590  -3.982   0.669  0.00  0.00     0.317 C 
BRANCH  10  11
ATOM     11  N2  <0> d   1       7.539  -4.662  -0.632  0.00  0.00     0.096 N 
ATOM     12  C18 <0> d   1       8.786  -5.393  -0.893  0.00  0.00     0.292 C 
ATOM     13  C17 <0> d   1       8.627  -6.231  -2.166  0.00  0.00     0.154 C 
ATOM     14  N3  <0> d   1       8.186  -5.347  -3.255  0.00  0.00    -0.362 N 
ATOM     15  C16 <0> d   1       7.021  -4.480  -3.019  0.00  0.00     0.154 C 
ATOM     16  C15 <0> d   1       7.244  -3.711  -1.712  0.00  0.00     0.292 C 
BRANCH  14  17
ATOM     17  C19 <0> d   1       8.852  -5.331  -4.475  0.00  0.00     0.125 A 
ATOM     18  N4  <0> d   1      10.015  -5.952  -4.596  0.00  0.00    -0.244 NA
ATOM     19  C23 <0> d   1      10.677  -5.966  -5.737  0.00  0.00     0.119 A 
ATOM     20  C22 <0> d   1      10.181  -5.318  -6.851  0.00  0.00     0.019 A 
ATOM     21  C21 <0> d   1       8.966  -4.650  -6.765  0.00  0.00     0.005 A 
ATOM     22  C20 <0> d   1       8.293  -4.658  -5.557  0.00  0.00     0.050 A 
ENDBRANCH  14  17
ENDBRANCH  10  11
ENDBRANCH   6  10
BRANCH   5  23
ATOM     23  O2  <0> d   1       5.691  -5.490   2.103  0.00  0.00    -0.360 OA
ATOM     24  H22 <0> d   1       5.481  -6.177   1.456  0.00  0.00     0.217 HD
ENDBRANCH   5  23
BRANCH   1  25
ATOM     25  C4  <0> d   1       3.325   0.586   0.490  0.00  0.00    -0.004 A 
ATOM     26  C3  <0> d   1       3.524   1.959   0.620  0.00  0.00     0.014 A 
ATOM     27  C2  <0> d   1       2.437   2.806   0.704  0.00  0.00     0.001 A 
ATOM     28  C1  <0> d   1       1.153   2.294   0.660  0.00  0.00     0.000 A 
ATOM     29  C6  <0> d   1       0.950   0.932   0.532  0.00  0.00     0.001 A 
ATOM     30  C5  <0> d   1       2.028   0.075   0.447  0.00  0.00     0.014 A 
ENDBRANCH   1  25
TORSDOF 5
