REMARK  3 active torsions:
REMARK  status: ('A' for Active; 'I' for Inactive)
REMARK    1  A    between atoms: C5_5  and  C7_7 
REMARK    2  A    between atoms: C15_17  and  C16_18 
REMARK    3  A    between atoms: C16_18  and  N1_19 
ROOT
ATOM      1  C7  <0> d   1      -2.394   5.354   0.055  0.00  0.00     0.051 A 
ATOM      2  C8  <0> d   1      -1.163   5.926   0.046  0.00  0.00     0.159 A 
ATOM      3  O1  <0> d   1      -0.037   5.208   0.031  0.00  0.00    -0.320 OA
ATOM      4  C9  <0> d   1      -0.019   3.860   0.023  0.00  0.00     0.100 A 
ATOM      5  C10 <0> d   1      -1.223   3.135   0.031  0.00  0.00     0.050 A 
ATOM      6  C11 <0> d   1      -2.492   3.884   0.047  0.00  0.00     0.198 A 
ATOM      7  O2  <0> d   1      -3.570   3.315   0.054  0.00  0.00    -0.286 OA
ATOM      8  C12 <0> d   1      -1.206   1.739   0.017  0.00  0.00     0.021 A 
ATOM      9  C13 <0> d   1      -0.013   1.076   0.008  0.00  0.00     0.041 A 
ATOM     10  C14 <0> d   1       1.186   1.785   0.000  0.00  0.00     0.118 A 
ATOM     11  C15 <0> d   1       1.186   3.170   0.008  0.00  0.00     0.039 A 
ATOM     12  O4  <0> d   1       2.365   1.113  -0.015  0.00  0.00    -0.191 OA
ENDROOT
BRANCH  11  13
ATOM     13  C16 <0> d   1       2.490   3.926  -0.001  0.00  0.00     0.281 C 
BRANCH  13  14
ATOM     14  N1  <0> d   1       2.900   4.179  -1.389  0.00  0.00    -0.046 N 
ATOM     15  C20 <0> d   1       1.962   5.092  -2.057  0.00  0.00     0.402 C 
ATOM     16  O3  <0> d   1       2.430   5.377  -3.377  0.00  0.00    -0.364 OA
ATOM     17  C19 <0> d   1       2.550   4.222  -4.211  0.00  0.00     0.171 C 
ATOM     18  C18 <0> d   1       3.518   3.230  -3.557  0.00  0.00     0.054 C 
ATOM     19  C17 <0> d   1       3.030   2.921  -2.138  0.00  0.00     0.240 C 
ATOM     20  H18 <0> d   1       3.886   4.665  -1.365  0.00  0.00     0.282 HD
ENDBRANCH  13  14
ENDBRANCH  11  13
BRANCH   1  21
ATOM     21  C5  <0> d   1      -3.618   6.192   0.071  0.00  0.00     0.018 A 
ATOM     22  C4  <0> d   1      -4.476   6.158   1.170  0.00  0.00     0.127 A 
ATOM     23  C3  <0> d   1      -5.612   6.946   1.181  0.00  0.00     0.043 A 
ATOM     24  F1  <0> d   1      -4.196   5.360   2.224  0.00  0.00    -0.205 F 
ATOM     25  C2  <0> d   1      -5.902   7.758   0.100  0.00  0.00     0.003 A 
ATOM     26  C1  <0> d   1      -5.056   7.792  -0.994  0.00  0.00     0.001 A 
ATOM     27  C6  <0> d   1      -3.917   7.014  -1.014  0.00  0.00     0.015 A 
ENDBRANCH   1  21
TORSDOF 3
