REMARK  6 active torsions:
REMARK  status: ('A' for Active; 'I' for Inactive)
REMARK    1  A    between atoms: N2_5  and  C6_8 
REMARK    2  A    between atoms: C6_8  and  C7_9 
REMARK    3  A    between atoms: C13_16  and  C23_29 
REMARK    4  A    between atoms: C14_17  and  O3_20 
REMARK    5  A    between atoms: O3_20  and  C16_21 
REMARK    6  A    between atoms: C20_25  and  O4_27 
ROOT
ATOM      1  C7  <0> d   1      -0.018   1.503   0.010  0.00  0.00     0.039 A 
ATOM      2  C8  <0> d   1       1.170   2.214   0.003  0.00  0.00     0.118 A 
ATOM      3  C9  <0> d   1       1.162   3.607   0.010  0.00  0.00     0.041 A 
ATOM      4  C10 <0> d   1      -0.020   4.292   0.025  0.00  0.00     0.021 A 
ATOM      5  C11 <0> d   1      -1.226   3.589   0.032  0.00  0.00     0.052 A 
ATOM      6  C12 <0> d   1      -1.228   2.183   0.020  0.00  0.00     0.101 A 
ATOM      7  O1  <0> d   1      -2.399   1.515   0.022  0.00  0.00    -0.301 OA
ATOM      8  C13 <0> d   1      -3.583   2.142   0.030  0.00  0.00     0.197 A 
ATOM      9  C14 <0> d   1      -3.697   3.485   0.038  0.00  0.00     0.165 A 
ATOM     10  C15 <0> d   1      -2.522   4.290   0.048  0.00  0.00     0.221 A 
ATOM     11  O2  <0> d   1      -2.586   5.507   0.055  0.00  0.00    -0.284 OA
ATOM     12  O5  <0> d   1       2.353   1.548  -0.012  0.00  0.00    -0.191 OA
ENDROOT
BRANCH   1  13
ATOM     13  C6  <0> d   1       0.002  -0.004   0.002  0.00  0.00     0.279 C 
BRANCH  13  14
ATOM     14  N2  <0> d   1       0.022  -0.501   1.384  0.00  0.00    -0.064 N 
ATOM     15  C3  <0> d   1      -0.196  -1.954   1.425  0.00  0.00     0.265 C 
ATOM     16  C2  <0> d   1      -0.248  -2.419   2.882  0.00  0.00     0.299 C 
ATOM     17  N1  <0> d   1       1.009  -2.059   3.553  0.00  0.00     0.087 N 
ATOM     18  C1  <0> d   1       1.029  -2.556   4.935  0.00  0.00     0.310 C 
ATOM     19  C5  <0> d   1       1.227  -0.606   3.513  0.00  0.00     0.299 C 
ATOM     20  C4  <0> d   1       1.279  -0.141   2.055  0.00  0.00     0.265 C 
ATOM     21  H23 <0> d   1      -0.804  -0.018   1.927  0.00  0.00     0.280 HD
ENDBRANCH  13  14
ENDBRANCH   1  13
BRANCH   8  22
ATOM     22  C23 <0> d   1      -4.840   1.311   0.032  0.00  0.00     0.442 C 
ATOM     23  F1  <0> d   1      -5.235   1.060  -1.287  0.00  0.00    -0.164 F 
ATOM     24  F2  <0> d   1      -4.596   0.098   0.684  0.00  0.00    -0.164 F 
ATOM     25  F3  <0> d   1      -5.856   2.003   0.699  0.00  0.00    -0.164 F 
ENDBRANCH   8  22
BRANCH   9  26
ATOM     26  O3  <0> d   1      -4.927   4.068   0.047  0.00  0.00    -0.304 OA
BRANCH  26  27
ATOM     27  C16 <0> d   1      -5.497   4.335   1.251  0.00  0.00     0.079 A 
ATOM     28  C21 <0> d   1      -6.749   4.929   1.309  0.00  0.00     0.074 A 
ATOM     29  C20 <0> d   1      -7.329   5.199   2.539  0.00  0.00     0.070 A 
ATOM     30  C19 <0> d   1      -6.655   4.876   3.708  0.00  0.00     0.037 A 
ATOM     31  C18 <0> d   1      -5.408   4.284   3.648  0.00  0.00     0.005 A 
ATOM     32  C17 <0> d   1      -4.830   4.008   2.424  0.00  0.00     0.037 A 
BRANCH  29  33
ATOM     33  O4  <0> d   1      -8.556   5.780   2.599  0.00  0.00    -0.356 OA
ATOM     34  C22 <0> d   1      -9.092   6.030   3.900  0.00  0.00     0.210 C 
ENDBRANCH  29  33
ENDBRANCH  26  27
ENDBRANCH   9  26
TORSDOF 6
