REMARK  4 active torsions:
REMARK  status: ('A' for Active; 'I' for Inactive)
REMARK    1  A    between atoms: N2_5  and  C6_8 
REMARK    2  A    between atoms: C6_8  and  C7_9 
REMARK    3  A    between atoms: C8_10  and  O5_31 
REMARK    4  A    between atoms: C14_17  and  C15_18 
ROOT
ATOM      1  C7  <0> d   1       4.024   0.916   1.736  0.00  0.00     0.038 A 
ATOM      2  C8  <0> d   1       5.110   0.590   0.940  0.00  0.00     0.076 A 
ATOM      3  C9  <0> d   1       6.333   1.234   1.112  0.00  0.00     0.038 A 
ATOM      4  C10 <0> d   1       6.476   2.188   2.079  0.00  0.00     0.021 A 
ATOM      5  C11 <0> d   1       5.392   2.522   2.892  0.00  0.00     0.051 A 
ATOM      6  C12 <0> d   1       4.152   1.884   2.724  0.00  0.00     0.101 A 
ATOM      7  O1  <0> d   1       3.265   2.370   3.619  0.00  0.00    -0.305 OA
ATOM      8  C13 <0> d   1       3.818   3.320   4.410  0.00  0.00     0.128 A 
ATOM      9  C14 <0> d   1       3.191   4.000   5.405  0.00  0.00     0.055 C 
ATOM     10  C23 <0> d   1       5.219   3.481   3.998  0.00  0.00     0.218 A 
ATOM     11  O4  <0> d   1       6.051   4.239   4.465  0.00  0.00    -0.284 OA
ENDROOT
BRANCH   9  12
ATOM     12  C15 <0> d   1       1.749   3.826   5.617  0.00  0.00     0.002 A 
ATOM     13  C20 <0> d   1       1.027   4.766   6.372  0.00  0.00     0.090 A 
ATOM     14  C19 <0> d   1      -0.334   4.594   6.563  0.00  0.00     0.002 A 
ATOM     15  O2  <0> d   1       1.672   5.832   6.910  0.00  0.00    -0.325 OA
ATOM     16  C18 <0> d   1      -0.977   3.499   6.015  0.00  0.00     0.036 A 
ATOM     17  C22 <0> d   1      -1.123   5.597   7.366  0.00  0.00     0.212 C 
ATOM     18  C17 <0> d   1      -0.270   2.567   5.271  0.00  0.00     0.035 A 
ATOM     19  C16 <0> d   1       1.084   2.725   5.063  0.00  0.00     0.038 A 
ATOM     20 Cl1  <0> d   1      -1.094   1.199   4.591  0.00  0.00    -0.084 Cl
ATOM     21  O3  <0> d   1      -0.223   6.407   8.127  0.00  0.00    -0.362 OA
ATOM     22  C21 <0> d   1       0.861   6.926   7.347  0.00  0.00     0.345 C 
ENDBRANCH   9  12
BRANCH   1  23
ATOM     23  C6  <0> d   1       2.705   0.216   1.534  0.00  0.00     0.317 C 
BRANCH  23  24
ATOM     24  N2  <0> d   1       1.897   0.964   0.561  0.00  0.00     0.096 N 
ATOM     25  C3  <0> d   1       1.910   2.403   0.862  0.00  0.00     0.300 C 
ATOM     26  C2  <0> d   1       1.125   3.154  -0.216  0.00  0.00     0.264 C 
ATOM     27  N1  <0> d   1      -0.251   2.641  -0.264  0.00  0.00    -0.072 N 
ATOM     28  C1  <0> d   1      -1.058   3.389  -1.236  0.00  0.00     0.269 C 
ATOM     29  C5  <0> d   1      -0.264   1.202  -0.564  0.00  0.00     0.264 C 
ATOM     30  H24 <0> d   1      -0.701   2.784   0.730  0.00  0.00     0.279 HD
ATOM     31  C4  <0> d   1       0.521   0.451   0.514  0.00  0.00     0.300 C 
ENDBRANCH  23  24
ENDBRANCH   1  23
BRANCH   2  32
ATOM     32  O5  <0> d   1       4.980  -0.361  -0.020  0.00  0.00    -0.360 OA
ATOM     33  H23 <0> d   1       5.839  -0.623  -0.655  0.00  0.00     0.217 HD
ENDBRANCH   2  32
TORSDOF 4
