REMARK  4 active torsions:
REMARK  status: ('A' for Active; 'I' for Inactive)
REMARK    1  A    between atoms: C2_2  and  N1_3 
REMARK    2  A    between atoms: N2_6  and  C7_9 
REMARK    3  A    between atoms: C7_9  and  C8_10 
REMARK    4  A    between atoms: C15_18  and  C16_19 
ROOT
ATOM      1  C8  <0> d   1       1.862  -4.038   4.697  0.00  0.00     0.039 A 
ATOM      2  C9  <0> d   1       0.890  -4.821   5.299  0.00  0.00     0.118 A 
ATOM      3  C10 <0> d   1       0.987  -6.210   5.280  0.00  0.00     0.041 A 
ATOM      4  C11 <0> d   1       2.047  -6.815   4.666  0.00  0.00     0.021 A 
ATOM      5  C12 <0> d   1       3.034  -6.040   4.057  0.00  0.00     0.051 A 
ATOM      6  C13 <0> d   1       2.943  -4.638   4.064  0.00  0.00     0.101 A 
ATOM      7  O1  <0> d   1       4.002  -4.111   3.411  0.00  0.00    -0.305 OA
ATOM      8  C14 <0> d   1       4.831  -5.072   2.939  0.00  0.00     0.129 A 
ATOM      9  C15 <0> d   1       5.982  -4.868   2.240  0.00  0.00     0.078 C 
ATOM     10  C24 <0> d   1       4.272  -6.372   3.329  0.00  0.00     0.218 A 
ATOM     11  O3  <0> d   1       4.724  -7.480   3.092  0.00  0.00    -0.284 OA
ATOM     12  O4  <0> d   1      -0.167  -4.229   5.911  0.00  0.00    -0.191 OA
ENDROOT
BRANCH   9  13
ATOM     13  C16 <0> d   1       6.407  -3.550   1.945  0.00  0.00     0.079 A 
ATOM     14  O2  <0> d   1       5.757  -2.422   2.303  0.00  0.00    -0.310 OA
ATOM     15  C23 <0> d   1       6.438  -1.342   1.864  0.00  0.00     0.086 A 
ATOM     16  C18 <0> d   1       7.579  -1.807   1.184  0.00  0.00     0.002 A 
ATOM     17  C22 <0> d   1       6.214   0.025   1.963  0.00  0.00     0.039 A 
ATOM     18  C17 <0> d   1       7.534  -3.223   1.251  0.00  0.00     0.051 A 
ATOM     19  C19 <0> d   1       8.472  -0.893   0.615  0.00  0.00     0.033 A 
ATOM     20  C20 <0> d   1       8.232   0.448   0.724  0.00  0.00     0.011 A 
ATOM     21  C21 <0> d   1       7.107   0.909   1.395  0.00  0.00     0.022 A 
ATOM     22 Br1  <0> d   1       9.440   1.684  -0.044  0.00  0.00    -0.051 Br
ENDBRANCH   9  13
BRANCH   1  23
ATOM     23  C7  <0> d   1       1.744  -2.536   4.725  0.00  0.00     0.279 C 
BRANCH  23  24
ATOM     24  N2  <0> d   1       0.991  -2.083   3.547  0.00  0.00    -0.064 N 
ATOM     25  C4  <0> d   1       0.772  -0.633   3.635  0.00  0.00     0.265 C 
ATOM     26  C3  <0> d   1      -0.028  -0.163   2.418  0.00  0.00     0.300 C 
ATOM     27  N1  <0> d   1       0.713  -0.491   1.192  0.00  0.00     0.091 N 
ATOM     28  C6  <0> d   1       0.961  -1.937   1.103  0.00  0.00     0.300 C 
ATOM     29  C5  <0> d   1       1.753  -2.392   2.330  0.00  0.00     0.265 C 
ATOM     30  H23 <0> d   1       0.100  -2.556   3.515  0.00  0.00     0.280 HD
BRANCH  27  31
ATOM     31  C2  <0> d   1       0.002  -0.004   0.002  0.00  0.00     0.268 C 
ATOM     32  C1  <0> d   1      -0.019   1.526   0.010  0.00  0.00     0.037 C 
ENDBRANCH  27  31
ENDBRANCH  23  24
ENDBRANCH   1  23
TORSDOF 4
