REMARK  4 active torsions:
REMARK  status: ('A' for Active; 'I' for Inactive)
REMARK    1  A    between atoms: N2_5  and  C6_8 
REMARK    2  A    between atoms: C6_8  and  C7_9 
REMARK    3  A    between atoms: C8_10  and  O5_31 
REMARK    4  A    between atoms: C14_17  and  C15_18 
ROOT
ATOM      1  C7  <0> d   1       4.020   0.927   1.726  0.00  0.00     0.038 A 
ATOM      2  C8  <0> d   1       5.108   0.598   0.933  0.00  0.00     0.076 A 
ATOM      3  C9  <0> d   1       6.333   1.233   1.113  0.00  0.00     0.038 A 
ATOM      4  C10 <0> d   1       6.478   2.182   2.085  0.00  0.00     0.021 A 
ATOM      5  C11 <0> d   1       5.393   2.519   2.895  0.00  0.00     0.051 A 
ATOM      6  C12 <0> d   1       4.150   1.890   2.719  0.00  0.00     0.101 A 
ATOM      7  O1  <0> d   1       3.263   2.377   3.613  0.00  0.00    -0.305 OA
ATOM      8  C13 <0> d   1       3.818   3.320   4.410  0.00  0.00     0.128 A 
ATOM      9  C14 <0> d   1       3.191   3.999   5.406  0.00  0.00     0.055 C 
ATOM     10  C23 <0> d   1       5.222   3.475   4.004  0.00  0.00     0.218 A 
ATOM     11  O4  <0> d   1       6.057   4.226   4.479  0.00  0.00    -0.284 OA
ENDROOT
BRANCH   9  12
ATOM     12  C15 <0> d   1       1.749   3.825   5.618  0.00  0.00     0.002 A 
ATOM     13  C20 <0> d   1       1.027   4.765   6.373  0.00  0.00     0.090 A 
ATOM     14  C19 <0> d   1      -0.333   4.593   6.565  0.00  0.00     0.001 A 
ATOM     15  O2  <0> d   1       1.673   5.831   6.912  0.00  0.00    -0.325 OA
ATOM     16  C18 <0> d   1      -0.976   3.498   6.016  0.00  0.00     0.031 A 
ATOM     17  C22 <0> d   1      -1.123   5.595   7.368  0.00  0.00     0.212 C 
ATOM     18  C17 <0> d   1      -0.269   2.567   5.271  0.00  0.00     0.012 A 
ATOM     19  C16 <0> d   1       1.084   2.725   5.063  0.00  0.00     0.033 A 
ATOM     20 Br1  <0> d   1      -1.167   1.077   4.531  0.00  0.00    -0.051 Br
ATOM     21  O3  <0> d   1      -0.223   6.405   8.130  0.00  0.00    -0.362 OA
ATOM     22  C21 <0> d   1       0.861   6.924   7.350  0.00  0.00     0.345 C 
ENDBRANCH   9  12
BRANCH   1  23
ATOM     23  C6  <0> d   1       2.697   0.236   1.516  0.00  0.00     0.317 C 
BRANCH  23  24
ATOM     24  N2  <0> d   1       1.898   0.993   0.543  0.00  0.00     0.096 N 
ATOM     25  C3  <0> d   1       1.919   2.430   0.850  0.00  0.00     0.300 C 
ATOM     26  C2  <0> d   1       1.143   3.191  -0.228  0.00  0.00     0.264 C 
ATOM     27  N1  <0> d   1      -0.236   2.686  -0.283  0.00  0.00    -0.072 N 
ATOM     28  C1  <0> d   1      -1.035   3.444  -1.255  0.00  0.00     0.269 C 
ATOM     29  C5  <0> d   1      -0.256   1.249  -0.590  0.00  0.00     0.264 C 
ATOM     30  H24 <0> d   1      -0.690   2.828   0.709  0.00  0.00     0.279 HD
ATOM     31  C4  <0> d   1       0.519   0.489   0.488  0.00  0.00     0.300 C 
ENDBRANCH  23  24
ENDBRANCH   1  23
BRANCH   2  32
ATOM     32  O5  <0> d   1       4.975  -0.348  -0.031  0.00  0.00    -0.360 OA
ATOM     33  H23 <0> d   1       5.835  -0.613  -0.663  0.00  0.00     0.217 HD
ENDBRANCH   2  32
TORSDOF 4
