REMARK  6 active torsions:
REMARK  status: ('A' for Active; 'I' for Inactive)
REMARK    1  A    between atoms: C4_4  and  O5_34 
REMARK    2  A    between atoms: C5_5  and  C7_7 
REMARK    3  A    between atoms: C13_14  and  O4_33 
REMARK    4  A    between atoms: C14_15  and  C16_18 
REMARK    5  A    between atoms: C16_18  and  N1_19 
REMARK    6  A    between atoms: O5_34  and  C28_35 
ROOT
ATOM      1  C7  <0> d   1      -6.556   6.068   0.674  0.00  0.00     0.055 C 
ATOM      2  C8  <0> d   1      -6.548   4.971  -0.127  0.00  0.00     0.128 A 
ATOM      3  C9  <0> d   1      -7.053   4.898  -1.505  0.00  0.00     0.218 A 
ATOM      4  O1  <0> d   1      -7.558   5.791  -2.163  0.00  0.00    -0.284 OA
ATOM      5  C10 <0> d   1      -6.810   3.503  -1.915  0.00  0.00     0.051 A 
ATOM      6  C11 <0> d   1      -7.057   2.797  -3.093  0.00  0.00     0.021 A 
ATOM      7  C12 <0> d   1      -6.713   1.478  -3.181  0.00  0.00     0.038 A 
ATOM      8  C13 <0> d   1      -6.117   0.837  -2.099  0.00  0.00     0.076 A 
ATOM      9  C14 <0> d   1      -5.866   1.524  -0.923  0.00  0.00     0.038 A 
ATOM     10  C15 <0> d   1      -6.215   2.865  -0.814  0.00  0.00     0.101 A 
ATOM     11  O2  <0> d   1      -6.074   3.746   0.200  0.00  0.00    -0.305 OA
ENDROOT
BRANCH   9  12
ATOM     12  C16 <0> d   1      -5.221   0.817   0.241  0.00  0.00     0.316 C 
BRANCH  12  13
ATOM     13  N1  <0> d   1      -3.761   0.946   0.144  0.00  0.00     0.093 N 
ATOM     14  C21 <0> d   1      -3.246   0.226  -1.032  0.00  0.00     0.283 C 
ATOM     15  C20 <0> d   1      -1.748   0.548  -1.166  0.00  0.00     0.065 C 
ATOM     16  C19 <0> d   1      -1.029  -0.027   0.060  0.00  0.00     0.020 C 
ATOM     17  C22 <0> d   1      -1.594   2.053  -1.172  0.00  0.00     0.020 A 
ATOM     18  C18 <0> d   1      -1.600   0.667   1.299  0.00  0.00     0.033 C 
ATOM     19  C17 <0> d   1      -3.110   0.483   1.373  0.00  0.00     0.279 C 
ATOM     20  C27 <0> d   1      -1.207   2.134   1.283  0.00  0.00     0.138 C 
ATOM     21  N2  <0> d   1      -1.433   2.758  -0.021  0.00  0.00    -0.317 N 
ATOM     22  C26 <0> d   1      -1.448   4.114  -0.057  0.00  0.00     0.247 A 
ATOM     23  C25 <0> d   1      -1.508   4.799  -1.278  0.00  0.00     0.074 A 
ATOM     24  O3  <0> d   1      -1.408   4.745   0.987  0.00  0.00    -0.268 OA
ATOM     25  C24 <0> d   1      -1.604   4.084  -2.436  0.00  0.00     0.007 A 
ATOM     26  C23 <0> d   1      -1.665   2.688  -2.364  0.00  0.00     0.026 A 
ENDBRANCH  12  13
ENDBRANCH   9  12
BRANCH   8  27
ATOM     27  O4  <0> d   1      -5.778  -0.474  -2.196  0.00  0.00    -0.360 OA
ATOM     28  H24 <0> d   1      -5.307  -0.986  -1.344  0.00  0.00     0.217 HD
ENDBRANCH   8  27
BRANCH   1  29
ATOM     29  C5  <0> d   1      -6.162   5.951   2.082  0.00  0.00     0.000 A 
ATOM     30  C4  <0> d   1      -6.501   6.962   2.998  0.00  0.00     0.085 A 
ATOM     31  C3  <0> d   1      -6.123   6.840   4.325  0.00  0.00     0.038 A 
ATOM     32  C2  <0> d   1      -5.415   5.730   4.745  0.00  0.00     0.003 A 
ATOM     33  C1  <0> d   1      -5.078   4.730   3.846  0.00  0.00     0.001 A 
ATOM     34  C6  <0> d   1      -5.449   4.830   2.524  0.00  0.00     0.014 A 
BRANCH  30  35
ATOM     35  O5  <0> d   1      -7.197   8.051   2.584  0.00  0.00    -0.289 OA
BRANCH  35  36
ATOM     36  C28 <0> d   1      -7.506   9.036   3.572  0.00  0.00     0.505 C 
ATOM     37  F1  <0> d   1      -8.281   8.457   4.582  0.00  0.00    -0.184 F 
ATOM     38  F2  <0> d   1      -6.320   9.534   4.121  0.00  0.00    -0.184 F 
ENDBRANCH  35  36
ENDBRANCH  30  35
ENDBRANCH   1  29
TORSDOF 6
