REMARK  7 active torsions:
REMARK  status: ('A' for Active; 'I' for Inactive)
REMARK    1  A    between atoms: C2_2  and  O1_3 
REMARK    2  A    between atoms: O1_3  and  C3_4 
REMARK    3  A    between atoms: C3_4  and  C4_6 
REMARK    4  A    between atoms: C9_11  and  O3_21 
REMARK    5  A    between atoms: C10_12  and  C11_13 
REMARK    6  A    between atoms: C11_13  and  N1_14 
REMARK    7  A    between atoms: C17_23  and  C18_24 
ROOT
ATOM      1  C4  <0> d   1       1.285  -2.273  -2.322  0.00  0.00     0.087 A 
ATOM      2  C5  <0> d   1       2.706  -2.546  -2.612  0.00  0.00     0.028 A 
ATOM      3  C6  <0> d   1       2.733  -3.077  -3.910  0.00  0.00     0.088 A 
ATOM      4  C7  <0> d   1       3.953  -3.439  -4.470  0.00  0.00     0.041 A 
ATOM      5  C8  <0> d   1       5.119  -3.275  -3.753  0.00  0.00     0.040 A 
ATOM      6  C9  <0> d   1       5.091  -2.749  -2.466  0.00  0.00     0.074 A 
ATOM      7  C10 <0> d   1       3.886  -2.383  -1.893  0.00  0.00     0.015 A 
ATOM      8  O4  <0> d   1       1.465  -3.126  -4.370  0.00  0.00    -0.308 OA
ATOM      9  C17 <0> d   1       0.594  -2.666  -3.458  0.00  0.00     0.103 A 
ENDROOT
BRANCH   7  10
ATOM     10  C11 <0> d   1       3.853  -1.811  -0.499  0.00  0.00     0.277 C 
BRANCH  10  11
ATOM     11  N1  <0> d   1       3.824  -0.344  -0.573  0.00  0.00    -0.064 N 
ATOM     12  C15 <0> d   1       3.669   0.210   0.779  0.00  0.00     0.265 C 
ATOM     13  C14 <0> d   1       3.620   1.738   0.701  0.00  0.00     0.299 C 
ATOM     14  N2  <0> d   1       4.861   2.234   0.089  0.00  0.00     0.087 N 
ATOM     15  C13 <0> d   1       5.042   1.668  -1.255  0.00  0.00     0.299 C 
ATOM     16  C16 <0> d   1       4.877   3.703   0.048  0.00  0.00     0.310 C 
ATOM     17  C12 <0> d   1       5.079   0.141  -1.161  0.00  0.00     0.265 C 
ATOM     18  H27 <0> d   1       3.048  -0.051  -1.147  0.00  0.00     0.280 HD
ENDBRANCH  10  11
ENDBRANCH   7  10
BRANCH   6  19
ATOM     19  O3  <0> d   1       6.249  -2.593  -1.771  0.00  0.00    -0.360 OA
ATOM     20  H21 <0> d   1       6.673  -1.734  -1.901  0.00  0.00     0.217 HD
ENDBRANCH   6  19
BRANCH   1  21
ATOM     21  C3  <0> d   1       0.722  -1.710  -1.092  0.00  0.00     0.297 C 
ATOM     22  O2  <0> d   1       0.474  -2.437  -0.148  0.00  0.00    -0.259 OA
BRANCH  21  23
ATOM     23  O1  <0> d   1       0.478  -0.387  -1.005  0.00  0.00    -0.318 OA
BRANCH  23  24
ATOM     24  C2  <0> d   1      -0.071   0.093   0.224  0.00  0.00     0.174 C 
ATOM     25  C1  <0> d   1      -0.278   1.606   0.134  0.00  0.00     0.034 C 
ENDBRANCH  23  24
ENDBRANCH  21  23
ENDBRANCH   1  21
BRANCH   9  26
ATOM     26  C18 <0> d   1      -0.868  -2.588  -3.638  0.00  0.00    -0.001 A 
ATOM     27  C23 <0> d   1      -1.452  -3.016  -4.833  0.00  0.00     0.014 A 
ATOM     28  C22 <0> d   1      -2.821  -2.946  -4.991  0.00  0.00     0.001 A 
ATOM     29  C21 <0> d   1      -3.613  -2.442  -3.975  0.00  0.00     0.000 A 
ATOM     30  C20 <0> d   1      -3.041  -2.010  -2.791  0.00  0.00     0.001 A 
ATOM     31  C19 <0> d   1      -1.675  -2.080  -2.616  0.00  0.00     0.014 A 
ENDBRANCH   9  26
TORSDOF 7
