REMARK  7 active torsions:
REMARK  status: ('A' for Active; 'I' for Inactive)
REMARK    1  A    between atoms: C2_2  and  O1_3 
REMARK    2  A    between atoms: O1_3  and  C3_4 
REMARK       I    between atoms: C3_4  and  N1_6 
REMARK    3  A    between atoms: N2_9  and  C8_12 
REMARK    4  A    between atoms: C8_12  and  C9_13 
REMARK    5  A    between atoms: C10_14  and  O6_33 
REMARK    6  A    between atoms: C16_21  and  C18_24 
REMARK    7  A    between atoms: C21_27  and  O5_30 
ROOT
ATOM      1  C9  <0> d   1      -6.504  -5.265   1.756  0.00  0.00     0.035 A 
ATOM      2  C10 <0> d   1      -7.574  -5.564   0.930  0.00  0.00     0.076 A 
ATOM      3  C11 <0> d   1      -7.943  -6.887   0.695  0.00  0.00     0.038 A 
ATOM      4  C12 <0> d   1      -7.248  -7.909   1.277  0.00  0.00     0.021 A 
ATOM      5  C13 <0> d   1      -6.166  -7.623   2.110  0.00  0.00     0.050 A 
ATOM      6  C14 <0> d   1      -5.786  -6.291   2.354  0.00  0.00     0.100 A 
ATOM      7  O3  <0> d   1      -4.747  -6.019   3.167  0.00  0.00    -0.313 OA
ATOM      8  C15 <0> d   1      -3.864  -6.957   3.518  0.00  0.00     0.065 C 
ATOM      9  C16 <0> d   1      -4.098  -8.285   3.352  0.00  0.00     0.054 C 
ATOM     10  C17 <0> d   1      -5.383  -8.696   2.752  0.00  0.00     0.198 C 
ATOM     11  O4  <0> d   1      -5.768  -9.853   2.773  0.00  0.00    -0.286 OA
ATOM     12  C25 <0> d   1      -2.553  -6.524   4.123  0.00  0.00     0.077 C 
ENDROOT
BRANCH   1  13
ATOM     13  C8  <0> d   1      -6.117  -3.829   2.000  0.00  0.00     0.279 C 
BRANCH  13  14
ATOM     14  N2  <0> d   1      -5.142  -3.406   0.986  0.00  0.00    -0.064 N 
ATOM     15  C5  <0> d   1      -4.856  -1.975   1.152  0.00  0.00     0.255 C 
ATOM     16  C4  <0> d   1      -3.928  -1.507   0.025  0.00  0.00     0.156 C 
ATOM     17  N1  <0> d   1      -2.735  -2.368   0.015  0.00  0.00    -0.325 N 
ATOM     18  C3  <0> d   1      -1.497  -1.836   0.006  0.00  0.00     0.362 C 
ATOM     19  C7  <0> d   1      -2.932  -3.826   0.009  0.00  0.00     0.156 C 
ATOM     20  O2  <0> d   1      -0.523  -2.563  -0.007  0.00  0.00    -0.238 OA
ATOM     21  C6  <0> d   1      -3.906  -4.184   1.142  0.00  0.00     0.255 C 
ATOM     22  H29 <0> d   1      -5.525  -3.567   0.067  0.00  0.00     0.280 HD
BRANCH  18  23
ATOM     23  O1  <0> d   1      -1.339  -0.499   0.012  0.00  0.00    -0.304 OA
BRANCH  23  24
ATOM     24  C2  <0> d   1       0.002  -0.004   0.002  0.00  0.00     0.176 C 
ATOM     25  C1  <0> d   1      -0.019   1.526   0.010  0.00  0.00     0.034 C 
ENDBRANCH  23  24
ENDBRANCH  18  23
ENDBRANCH  13  14
ENDBRANCH   1  13
BRANCH   2  26
ATOM     26  O6  <0> d   1      -8.272  -4.558   0.343  0.00  0.00    -0.360 OA
ATOM     27  H28 <0> d   1      -7.929  -4.295  -0.523  0.00  0.00     0.217 HD
ENDBRANCH   2  26
BRANCH   9  28
ATOM     28  C18 <0> d   1      -3.095  -9.294   3.773  0.00  0.00    -0.019 A 
ATOM     29  C23 <0> d   1      -3.390 -10.185   4.803  0.00  0.00     0.015 A 
ATOM     30  C22 <0> d   1      -2.457 -11.125   5.188  0.00  0.00     0.037 A 
ATOM     31  C21 <0> d   1      -1.222 -11.178   4.558  0.00  0.00     0.068 A 
ATOM     32  C20 <0> d   1      -0.922 -10.287   3.536  0.00  0.00     0.037 A 
ATOM     33  C19 <0> d   1      -1.853  -9.348   3.143  0.00  0.00     0.015 A 
BRANCH  31  34
ATOM     34  O5  <0> d   1      -0.303 -12.102   4.943  0.00  0.00    -0.356 OA
ATOM     35  C24 <0> d   1      -0.676 -12.987   6.001  0.00  0.00     0.210 C 
ENDBRANCH  31  34
ENDBRANCH   9  28
TORSDOF 7
