REMARK  5 active torsions:
REMARK  status: ('A' for Active; 'I' for Inactive)
REMARK    1  A    between atoms: C2_2  and  N1_3 
REMARK    2  A    between atoms: N2_6  and  C7_9 
REMARK    3  A    between atoms: C7_9  and  C8_10 
REMARK    4  A    between atoms: C9_11  and  O3_28 
REMARK    5  A    between atoms: C15_19  and  C18_22 
ROOT
ATOM      1  C8  <0> d   1      -4.931  -4.100  -0.816  0.00  0.00     0.035 A 
ATOM      2  C9  <0> d   1      -4.954  -4.863  -1.973  0.00  0.00     0.076 A 
ATOM      3  C10 <0> d   1      -4.958  -6.254  -1.901  0.00  0.00     0.038 A 
ATOM      4  C11 <0> d   1      -4.954  -6.886  -0.692  0.00  0.00     0.017 A 
ATOM      5  C12 <0> d   1      -4.956  -6.131   0.490  0.00  0.00     0.006 A 
ATOM      6  C13 <0> d   1      -4.913  -4.725   0.420  0.00  0.00     0.101 A 
ATOM      7  O1  <0> d   1      -4.840  -3.993   1.559  0.00  0.00    -0.273 OA
ATOM      8  C14 <0> d   1      -5.357  -4.554   2.677  0.00  0.00     0.300 C 
ATOM      9  O2  <0> d   1      -5.965  -3.885   3.492  0.00  0.00    -0.259 OA
ATOM     10  C15 <0> d   1      -5.160  -5.999   2.874  0.00  0.00     0.057 C 
ATOM     11  C16 <0> d   1      -4.985  -6.773   1.755  0.00  0.00    -0.032 C 
ATOM     12  C17 <0> d   1      -4.810  -8.266   1.869  0.00  0.00     0.050 C 
ENDROOT
BRANCH   1  13
ATOM     13  C7  <0> d   1      -4.919  -2.596  -0.902  0.00  0.00     0.279 C 
BRANCH  13  14
ATOM     14  N2  <0> d   1      -3.530  -2.119  -0.956  0.00  0.00    -0.064 N 
ATOM     15  C4  <0> d   1      -3.519  -0.665  -1.160  0.00  0.00     0.265 C 
ATOM     16  C3  <0> d   1      -2.073  -0.171  -1.236  0.00  0.00     0.300 C 
ATOM     17  N1  <0> d   1      -1.376  -0.512   0.012  0.00  0.00     0.091 N 
ATOM     18  C6  <0> d   1      -1.400  -1.964   0.243  0.00  0.00     0.300 C 
ATOM     19  C5  <0> d   1      -2.852  -2.443   0.306  0.00  0.00     0.265 C 
ATOM     20  H27 <0> d   1      -3.050  -2.570  -1.721  0.00  0.00     0.280 HD
BRANCH  17  21
ATOM     21  C2  <0> d   1       0.002  -0.004   0.002  0.00  0.00     0.268 C 
ATOM     22  C1  <0> d   1      -0.019   1.526   0.010  0.00  0.00     0.037 C 
ENDBRANCH  17  21
ENDBRANCH  13  14
ENDBRANCH   1  13
BRANCH   2  23
ATOM     23  O3  <0> d   1      -4.972  -4.250  -3.184  0.00  0.00    -0.360 OA
ATOM     24  H26 <0> d   1      -4.094  -4.076  -3.550  0.00  0.00     0.217 HD
ENDBRANCH   2  23
BRANCH  10  25
ATOM     25  C18 <0> d   1      -5.162  -6.597   4.230  0.00  0.00    -0.019 A 
ATOM     26  C23 <0> d   1      -4.165  -6.262   5.144  0.00  0.00     0.012 A 
ATOM     27  C22 <0> d   1      -4.176  -6.817   6.408  0.00  0.00     0.001 A 
ATOM     28  C21 <0> d   1      -5.167  -7.714   6.763  0.00  0.00     0.000 A 
ATOM     29  C20 <0> d   1      -6.157  -8.055   5.858  0.00  0.00     0.001 A 
ATOM     30  C19 <0> d   1      -6.159  -7.501   4.594  0.00  0.00     0.012 A 
ENDBRANCH  10  25
TORSDOF 5
