REMARK  5 active torsions:
REMARK  status: ('A' for Active; 'I' for Inactive)
REMARK    1  A    between atoms: C6_6  and  C7_7 
REMARK    2  A    between atoms: N1_19  and  C18_22 
REMARK    3  A    between atoms: C18_22  and  C19_23 
REMARK    4  A    between atoms: C19_23  and  C20_24 
REMARK    5  A    between atoms: C20_24  and  N2_25 
ROOT
ATOM      1  C7  <0> d   1      -1.271  -0.765   0.011  0.00  0.00     0.048 C 
ATOM      2  C8  <0> d   1      -2.131  -0.700  -1.040  0.00  0.00     0.159 C 
ATOM      3  O1  <0> d   1      -3.278  -1.381  -1.078  0.00  0.00    -0.320 OA
ATOM      4  C9  <0> d   1      -3.811  -1.934   0.029  0.00  0.00     0.100 A 
ATOM      5  C10 <0> d   1      -3.034  -2.090   1.190  0.00  0.00     0.050 A 
ATOM      6  C11 <0> d   1      -1.635  -1.620   1.157  0.00  0.00     0.197 C 
ATOM      7  O2  <0> d   1      -0.832  -1.916   2.024  0.00  0.00    -0.286 OA
ATOM      8  C12 <0> d   1      -3.581  -2.674   2.332  0.00  0.00     0.021 A 
ATOM      9  C13 <0> d   1      -4.881  -3.089   2.323  0.00  0.00     0.038 A 
ATOM     10  C14 <0> d   1      -5.666  -2.933   1.179  0.00  0.00     0.082 A 
ATOM     11  C15 <0> d   1      -5.136  -2.358   0.038  0.00  0.00     0.038 A 
ATOM     12  C16 <0> d   1      -5.976  -2.177  -1.200  0.00  0.00     0.319 C 
ATOM     13  N1  <0> d   1      -7.164  -3.038  -1.119  0.00  0.00     0.116 N 
ATOM     14  C17 <0> d   1      -7.827  -2.867   0.184  0.00  0.00     0.447 C 
ATOM     15  O3  <0> d   1      -6.956  -3.359   1.206  0.00  0.00    -0.321 OA
ENDROOT
BRANCH  13  16
ATOM     16  C18 <0> d   1      -8.093  -2.759  -2.223  0.00  0.00     0.277 C 
BRANCH  16  17
ATOM     17  C19 <0> d   1      -9.185  -3.829  -2.254  0.00  0.00     0.058 C 
BRANCH  17  18
ATOM     18  C20 <0> d   1     -10.152  -3.538  -3.403  0.00  0.00     0.236 C 
BRANCH  18  19
ATOM     19  N2  <0> d   1     -11.202  -4.566  -3.432  0.00  0.00    -0.067 N 
ATOM     20  C24 <0> d   1     -12.196  -4.221  -4.458  0.00  0.00     0.261 C 
ATOM     21  C23 <0> d   1     -13.288  -5.294  -4.487  0.00  0.00     0.195 C 
ATOM     22  O4  <0> d   1     -12.691  -6.568  -4.741  0.00  0.00    -0.388 OA
ATOM     23  C22 <0> d   1     -11.697  -6.938  -3.781  0.00  0.00     0.195 C 
ATOM     24  C21 <0> d   1     -10.602  -5.869  -3.751  0.00  0.00     0.261 C 
ATOM     25  H26 <0> d   1     -11.651  -4.614  -2.530  0.00  0.00     0.280 HD
ENDBRANCH  18  19
ENDBRANCH  17  18
ENDBRANCH  16  17
ENDBRANCH  13  16
BRANCH   1  26
ATOM     26  C6  <0> d   1       0.002  -0.004   0.002  0.00  0.00    -0.020 A 
ATOM     27  C1  <0> d   1      -0.017   1.389   0.010  0.00  0.00     0.014 A 
ATOM     28  C2  <0> d   1       1.170   2.093   0.002  0.00  0.00     0.024 A 
ATOM     29  C3  <0> d   1       2.378   1.417  -0.013  0.00  0.00     0.034 A 
ATOM     30  C4  <0> d   1       2.402   0.033  -0.021  0.00  0.00     0.024 A 
ATOM     31 Cl1  <0> d   1       3.868   2.309  -0.024  0.00  0.00    -0.084 Cl
ATOM     32  C5  <0> d   1       1.221  -0.680  -0.014  0.00  0.00     0.014 A 
ENDBRANCH   1  26
TORSDOF 5
