REMARK  6 active torsions:
REMARK  status: ('A' for Active; 'I' for Inactive)
REMARK    1  A    between atoms: C2_2  and  C3_3 
REMARK    2  A    between atoms: C9_9  and  C12_14 
REMARK    3  A    between atoms: C12_14  and  N1_15 
REMARK    4  A    between atoms: N2_18  and  C17_21 
REMARK    5  A    between atoms: C17_21  and  C18_22 
REMARK    6  A    between atoms: C18_22  and  O3_23 
ROOT
ATOM      1  C3  <0> d   1       0.707  -0.490  -1.238  0.00  0.00    -0.058 A 
ATOM      2  C4  <0> d   1      -0.018  -0.718  -2.398  0.00  0.00     0.010 A 
ATOM      3  C5  <0> d   1       0.608  -1.162  -3.544  0.00  0.00     0.039 A 
ATOM      4  C6  <0> d   1       1.979  -1.385  -3.539  0.00  0.00     0.090 A 
ATOM      5  C7  <0> d   1       2.711  -1.153  -2.362  0.00  0.00     0.007 A 
ATOM      6  C8  <0> d   1       2.058  -0.698  -1.212  0.00  0.00     0.022 A 
ATOM      7  C9  <0> d   1       4.158  -1.391  -2.366  0.00  0.00    -0.011 A 
ATOM      8  C10 <0> d   1       4.732  -1.829  -3.515  0.00  0.00     0.092 A 
ATOM      9  C11 <0> d   1       3.936  -2.040  -4.661  0.00  0.00     0.288 A 
ATOM     10  O1  <0> d   1       4.463  -2.433  -5.686  0.00  0.00    -0.260 OA
ATOM     11  O2  <0> d   1       2.612  -1.820  -4.650  0.00  0.00    -0.275 OA
ENDROOT
BRANCH   7  12
ATOM     12  C12 <0> d   1       4.984  -1.157  -1.127  0.00  0.00     0.312 C 
BRANCH  12  13
ATOM     13  N1  <0> d   1       5.367   0.260  -1.056  0.00  0.00     0.096 N 
ATOM     14  C16 <0> d   1       5.968   0.577   0.247  0.00  0.00     0.303 C 
ATOM     15  C15 <0> d   1       6.279   2.075   0.311  0.00  0.00     0.302 C 
ATOM     16  N2  <0> d   1       7.190   2.430  -0.786  0.00  0.00     0.093 N 
ATOM     17  C14 <0> d   1       6.590   2.112  -2.089  0.00  0.00     0.302 C 
ATOM     18  C13 <0> d   1       6.278   0.615  -2.153  0.00  0.00     0.303 C 
BRANCH  16  19
ATOM     19  C17 <0> d   1       7.573   3.846  -0.714  0.00  0.00     0.298 C 
BRANCH  19  20
ATOM     20  C18 <0> d   1       8.412   4.085   0.543  0.00  0.00     0.194 C 
BRANCH  20  21
ATOM     21  O3  <0> d   1       9.643   3.365   0.438  0.00  0.00    -0.399 OA
ATOM     22  H24 <0> d   1      10.226   3.470   1.202  0.00  0.00     0.209 HD
ENDBRANCH  20  21
ENDBRANCH  19  20
ENDBRANCH  16  19
ENDBRANCH  12  13
ENDBRANCH   7  12
BRANCH   1  23
ATOM     23  C2  <0> d   1       0.002  -0.004   0.002  0.00  0.00     0.034 C 
ATOM     24  C1  <0> d   1      -0.019   1.526   0.010  0.00  0.00     0.010 C 
ENDBRANCH   1  23
TORSDOF 6
