REMARK  5 active torsions:
REMARK  status: ('A' for Active; 'I' for Inactive)
REMARK    1  A    between atoms: C3_3  and  C18_23 
REMARK    2  A    between atoms: C8_9  and  O3_13 
REMARK    3  A    between atoms: O3_13  and  C11_14 
REMARK    4  A    between atoms: C11_14  and  C12_15 
REMARK    5  A    between atoms: C12_15  and  N1_16 
ROOT
ATOM      1  C1  <0> d   1       3.770   6.096  -0.597  0.00  0.00     0.077 C 
ATOM      2  C2  <0> d   1       2.423   5.436  -0.453  0.00  0.00     0.065 A 
ATOM      3  C3  <0> d   1       1.319   6.221  -0.352  0.00  0.00     0.054 A 
ATOM      4  C4  <0> d   1       0.003   5.575  -0.211  0.00  0.00     0.198 A 
ATOM      5  O1  <0> d   1      -1.022   6.228  -0.117  0.00  0.00    -0.286 OA
ATOM      6  C5  <0> d   1      -0.015   4.102  -0.189  0.00  0.00     0.049 A 
ATOM      7  C6  <0> d   1      -1.211   3.394  -0.058  0.00  0.00     0.021 A 
ATOM      8  C7  <0> d   1      -1.192   2.029  -0.047  0.00  0.00     0.038 A 
ATOM      9  C8  <0> d   1       0.015   1.341  -0.154  0.00  0.00     0.071 A 
ATOM     10  C9  <0> d   1       1.209   2.029  -0.283  0.00  0.00     0.075 A 
ATOM     11  C10 <0> d   1       1.208   3.417  -0.302  0.00  0.00     0.092 A 
ATOM     12  O2  <0> d   1       2.361   4.103  -0.428  0.00  0.00    -0.313 OA
ENDROOT
BRANCH   9  13
ATOM     13  O3  <0> d   1       0.019  -0.017  -0.136  0.00  0.00    -0.349 OA
BRANCH  13  14
ATOM     14  C11 <0> d   1      -1.246  -0.668   0.001  0.00  0.00     0.203 C 
BRANCH  14  15
ATOM     15  C12 <0> d   1      -1.041  -2.184   0.000  0.00  0.00     0.261 C 
BRANCH  15  16
ATOM     16  N1  <0> d   1      -0.274  -2.575   1.190  0.00  0.00    -0.066 N 
ATOM     17  C16 <0> d   1      -1.117  -2.545   2.394  0.00  0.00     0.265 C 
ATOM     18  C15 <0> d   1      -0.264  -2.880   3.619  0.00  0.00     0.299 C 
ATOM     19  N2  <0> d   1       0.347  -4.205   3.441  0.00  0.00     0.087 N 
ATOM     20  C14 <0> d   1       1.190  -4.234   2.237  0.00  0.00     0.299 C 
ATOM     21  C17 <0> d   1       1.115  -4.596   4.630  0.00  0.00     0.310 C 
ATOM     22  C13 <0> d   1       0.337  -3.899   1.011  0.00  0.00     0.265 C 
ATOM     23  H26 <0> d   1       0.536  -1.843   1.325  0.00  0.00     0.280 HD
ENDBRANCH  15  16
ENDBRANCH  14  15
ENDBRANCH  13  14
ENDBRANCH   9  13
BRANCH   3  24
ATOM     24  C18 <0> d   1       1.437   7.699  -0.385  0.00  0.00    -0.019 A 
ATOM     25  C23 <0> d   1       1.096   8.453   0.737  0.00  0.00     0.014 A 
ATOM     26  C22 <0> d   1       1.208   9.828   0.702  0.00  0.00     0.024 A 
ATOM     27  C21 <0> d   1       1.658  10.459  -0.445  0.00  0.00     0.034 A 
ATOM     28  C20 <0> d   1       1.997   9.715  -1.562  0.00  0.00     0.024 A 
ATOM     29 Cl1  <0> d   1       1.797  12.189  -0.483  0.00  0.00    -0.084 Cl
ATOM     30  C19 <0> d   1       1.894   8.339  -1.536  0.00  0.00     0.014 A 
ENDBRANCH   3  24
TORSDOF 5
