REMARK  6 active torsions:
REMARK  status: ('A' for Active; 'I' for Inactive)
REMARK    1  A    between atoms: C3_3  and  C19_26 
REMARK    2  A    between atoms: C4_4  and  C5_8 
REMARK    3  A    between atoms: C8_11  and  O2_15 
REMARK    4  A    between atoms: O2_15  and  C11_16 
REMARK    5  A    between atoms: C11_16  and  C12_17 
REMARK    6  A    between atoms: C12_17  and  N3_18 
ROOT
ATOM      1  C5  <0> d   1       0.158  -2.343   2.496  0.00  0.00     0.032 A 
ATOM      2  C6  <0> d   1      -0.202  -2.264   3.840  0.00  0.00     0.019 A 
ATOM      3  C7  <0> d   1      -0.366  -3.418   4.578  0.00  0.00     0.038 A 
ATOM      4  C8  <0> d   1      -0.172  -4.659   3.986  0.00  0.00     0.071 A 
ATOM      5  C9  <0> d   1       0.186  -4.746   2.649  0.00  0.00     0.077 A 
ATOM      6  C10 <0> d   1       0.347  -3.593   1.899  0.00  0.00     0.122 A 
ATOM      7  O1  <0> d   1       0.693  -3.676   0.588  0.00  0.00    -0.191 OA
ENDROOT
BRANCH   1   8
ATOM      8  C4  <0> d   1       0.335  -1.104   1.700  0.00  0.00     0.103 A 
ATOM      9  C3  <0> d   1       1.056   0.049   2.099  0.00  0.00     0.029 A 
ATOM     10  C2  <0> d   1       0.975   0.954   1.084  0.00  0.00     0.037 A 
ATOM     11  C1  <0> d   1       1.594   2.328   1.068  0.00  0.00     0.070 C 
ATOM     12  N2  <0> d   1       0.236   0.405   0.099  0.00  0.00    -0.281 N 
ATOM     13  N1  <0> d   1      -0.150  -0.880   0.498  0.00  0.00    -0.173 NA
ATOM     14  H1  <0> d   1       0.011   0.828  -0.745  0.00  0.00     0.189 HD
BRANCH   9  15
ATOM     15  C19 <0> d   1       1.771   0.236   3.386  0.00  0.00    -0.021 A 
ATOM     16  C24 <0> d   1       1.312   1.171   4.311  0.00  0.00     0.014 A 
ATOM     17  C23 <0> d   1       1.977   1.338   5.509  0.00  0.00     0.020 A 
ATOM     18  C22 <0> d   1       3.104   0.585   5.787  0.00  0.00     0.011 A 
ATOM     19  C21 <0> d   1       3.567  -0.343   4.870  0.00  0.00     0.020 A 
ATOM     20 Br1  <0> d   1       4.016   0.823   7.427  0.00  0.00    -0.051 Br
ATOM     21  C20 <0> d   1       2.906  -0.520   3.671  0.00  0.00     0.014 A 
ENDBRANCH   9  15
ENDBRANCH   1   8
BRANCH   4  22
ATOM     22  O2  <0> d   1      -0.335  -5.792   4.718  0.00  0.00    -0.349 OA
BRANCH  22  23
ATOM     23  C11 <0> d   1      -0.120  -7.035   4.047  0.00  0.00     0.206 C 
BRANCH  23  24
ATOM     24  C12 <0> d   1      -0.347  -8.189   5.026  0.00  0.00     0.299 C 
BRANCH  24  25
ATOM     25  N3  <0> d   1      -1.755  -8.204   5.446  0.00  0.00     0.095 N 
ATOM     26  C16 <0> d   1      -2.616  -8.748   4.386  0.00  0.00     0.303 C 
ATOM     27  C15 <0> d   1      -4.076  -8.691   4.842  0.00  0.00     0.146 C 
ATOM     28  O3  <0> d   1      -4.214  -9.407   6.072  0.00  0.00    -0.378 OA
ATOM     29  C17 <0> d   1      -4.970  -9.328   3.776  0.00  0.00     0.041 C 
ATOM     30  C14 <0> d   1      -3.390  -8.904   7.127  0.00  0.00     0.146 C 
ATOM     31  C13 <0> d   1      -1.923  -8.963   6.694  0.00  0.00     0.303 C 
ATOM     32  C18 <0> d   1      -3.775  -7.454   7.430  0.00  0.00     0.041 C 
ENDBRANCH  24  25
ENDBRANCH  23  24
ENDBRANCH  22  23
ENDBRANCH   4  22
TORSDOF 6
