REMARK  6 active torsions:
REMARK  status: ('A' for Active; 'I' for Inactive)
REMARK    1  A    between atoms: C7_8  and  C8_10 
REMARK    2  A    between atoms: C8_10  and  C9_13 
REMARK    3  A    between atoms: N2_11  and  O1_12 
REMARK    4  A    between atoms: C9_13  and  C10_15 
REMARK    5  A    between atoms: C13_18  and  O4_22 
REMARK    6  A    between atoms: C15_20  and  O3_21 
ROOT
ATOM      1  C8  <0> d   1       1.493   7.280   0.002  0.00  0.00     0.170 C 
ATOM      2  N2  <0> d   1       0.514   8.140  -0.001  0.00  0.00    -0.129 NA
ENDROOT
BRANCH   1   3
ATOM      3  C7  <0> d   1       1.205   5.831  -0.008  0.00  0.00     0.134 A 
ATOM      4  N1  <0> d   1       0.039   5.221  -0.019  0.00  0.00    -0.238 NA
ATOM      5  C5  <0> d   1      -0.079   3.886  -0.028  0.00  0.00     0.075 A 
ATOM      6  C4  <0> d   1       1.137   3.160  -0.023  0.00  0.00     0.035 A 
ATOM      7  C6  <0> d   1      -1.266   3.113  -0.040  0.00  0.00     0.033 A 
ATOM      8  C3  <0> d   1       1.179   1.787  -0.030  0.00  0.00     0.021 A 
ATOM      9  S1  <0> d   1       2.350   4.459  -0.007  0.00  0.00    -0.066 SA
ATOM     10  C2  <0> d   1      -0.003   1.072  -0.042  0.00  0.00     0.002 A 
ATOM     11  C1  <0> d   1      -1.212   1.755  -0.052  0.00  0.00     0.002 A 
ENDBRANCH   1   3
BRANCH   1  12
ATOM     12  C9  <0> d   1       2.896   7.756   0.014  0.00  0.00     0.218 C 
ATOM     13  O2  <0> d   1       3.808   6.957   0.113  0.00  0.00    -0.285 OA
BRANCH  12  14
ATOM     14  C10 <0> d   1       3.185   9.194  -0.093  0.00  0.00     0.050 A 
ATOM     15  C15 <0> d   1       4.513   9.640  -0.203  0.00  0.00     0.082 A 
ATOM     16  C14 <0> d   1       4.773  10.996  -0.308  0.00  0.00     0.074 A 
ATOM     17  C13 <0> d   1       3.725  11.904  -0.293  0.00  0.00     0.068 A 
ATOM     18  C12 <0> d   1       2.410  11.459  -0.178  0.00  0.00     0.037 A 
ATOM     19  C11 <0> d   1       2.140  10.125  -0.079  0.00  0.00     0.021 A 
BRANCH  15  20
ATOM     20  O3  <0> d   1       5.534   8.747  -0.212  0.00  0.00    -0.360 OA
ATOM     21  H10 <0> d   1       6.573   9.100  -0.298  0.00  0.00     0.217 HD
ENDBRANCH  15  20
BRANCH  17  22
ATOM     22  O4  <0> d   1       3.982  13.233  -0.390  0.00  0.00    -0.361 OA
ATOM     23  H9  <0> d   1       5.019  13.588  -0.481  0.00  0.00     0.217 HD
ENDBRANCH  17  22
ENDBRANCH  12  14
ENDBRANCH   1  12
BRANCH   2  24
ATOM     24  O1  <0> d   1      -0.827   7.685  -0.013  0.00  0.00    -0.266 OA
ATOM     25  H5  <0> d   1      -1.654   8.411  -0.015  0.00  0.00     0.247 HD
ENDBRANCH   2  24
TORSDOF 6
