REMARK  5 active torsions:
REMARK  status: ('A' for Active; 'I' for Inactive)
REMARK    1  A    between atoms: C3_3  and  O3_27 
REMARK    2  A    between atoms: C10_12  and  C11_13 
REMARK    3  A    between atoms: C11_13  and  N1_14 
REMARK    4  A    between atoms: N2_17  and  C16_20 
REMARK    5  A    between atoms: C16_20  and  C17_21 
ROOT
ATOM      1  C1  <0> d   1      -0.018   1.503   0.010  0.00  0.00     0.054 C 
ATOM      2  C2  <0> d   1       0.002  -0.004   0.002  0.00  0.00     0.006 A 
ATOM      3  C3  <0> d   1       0.006  -0.693  -1.200  0.00  0.00     0.074 A 
ATOM      4  C4  <0> d   1       0.024  -2.086  -1.219  0.00  0.00     0.038 A 
ATOM      5  C5  <0> d   1       0.039  -2.792  -0.051  0.00  0.00     0.017 A 
ATOM      6  C6  <0> d   1       0.036  -2.113   1.173  0.00  0.00     0.007 A 
ATOM      7  C7  <0> d   1       0.023  -0.706   1.198  0.00  0.00     0.099 A 
ATOM      8  O1  <0> d   1       0.025  -0.054   2.380  0.00  0.00    -0.274 OA
ATOM      9  C8  <0> d   1       0.045  -0.719   3.546  0.00  0.00     0.288 A 
ATOM     10  O2  <0> d   1       0.046  -0.089   4.588  0.00  0.00    -0.260 OA
ATOM     11  C9  <0> d   1       0.065  -2.128   3.595  0.00  0.00     0.092 A 
ATOM     12  C10 <0> d   1       0.051  -2.845   2.441  0.00  0.00    -0.011 A 
ENDROOT
BRANCH  12  13
ATOM     13  C11 <0> d   1       0.071  -4.351   2.466  0.00  0.00     0.312 C 
BRANCH  13  14
ATOM     14  N1  <0> d   1      -1.303  -4.861   2.359  0.00  0.00     0.096 N 
ATOM     15  C15 <0> d   1      -1.310  -6.314   2.141  0.00  0.00     0.303 C 
ATOM     16  C14 <0> d   1      -2.752  -6.792   1.957  0.00  0.00     0.303 C 
ATOM     17  N2  <0> d   1      -3.539  -6.437   3.146  0.00  0.00     0.096 N 
ATOM     18  C13 <0> d   1      -3.532  -4.983   3.364  0.00  0.00     0.303 C 
ATOM     19  C12 <0> d   1      -2.090  -4.505   3.548  0.00  0.00     0.303 C 
BRANCH  17  20
ATOM     20  C16 <0> d   1      -4.913  -6.946   3.040  0.00  0.00     0.311 C 
BRANCH  20  21
ATOM     21  C17 <0> d   1      -4.894  -8.453   3.064  0.00  0.00    -0.030 A 
ATOM     22  C22 <0> d   1      -4.984  -9.126   4.268  0.00  0.00     0.009 A 
ATOM     23  C21 <0> d   1      -4.970 -10.508   4.290  0.00  0.00     0.001 A 
ATOM     24  C20 <0> d   1      -4.857 -11.217   3.109  0.00  0.00     0.000 A 
ATOM     25  C19 <0> d   1      -4.762 -10.544   1.905  0.00  0.00     0.001 A 
ATOM     26  C18 <0> d   1      -4.780  -9.162   1.883  0.00  0.00     0.009 A 
ENDBRANCH  20  21
ENDBRANCH  17  20
ENDBRANCH  13  14
ENDBRANCH  12  13
BRANCH   3  27
ATOM     27  O3  <0> d   1      -0.009  -0.004  -2.370  0.00  0.00    -0.360 OA
ATOM     28  H24 <0> d   1       0.870   0.207  -2.713  0.00  0.00     0.217 HD
ENDBRANCH   3  27
TORSDOF 5
