REMARK  8 active torsions:
REMARK  status: ('A' for Active; 'I' for Inactive)
REMARK    1  A    between atoms: C3_3  and  O3_24 
REMARK    2  A    between atoms: C6_6  and  C8_9 
REMARK    3  A    between atoms: C7_7  and  O1_8 
REMARK    4  A    between atoms: C9_10  and  C12_16 
REMARK    5  A    between atoms: C15_19  and  O2_22 
REMARK    6  A    between atoms: O3_24  and  C19_25 
REMARK    7  A    between atoms: C19_25  and  C20_26 
REMARK    8  A    between atoms: C20_26  and  N3_27 
ROOT
ATOM      1  C1  <0> d   1       0.385   1.798   1.764  0.00  0.00     0.054 C 
ATOM      2  C2  <0> d   1       0.232   0.315   1.543  0.00  0.00     0.005 A 
ATOM      3  C3  <0> d   1       0.375  -0.214   0.268  0.00  0.00     0.077 A 
ATOM      4  C4  <0> d   1       0.235  -1.580   0.058  0.00  0.00     0.038 A 
ATOM      5  C5  <0> d   1      -0.048  -2.419   1.115  0.00  0.00     0.019 A 
ATOM      6  C6  <0> d   1      -0.193  -1.896   2.400  0.00  0.00     0.027 A 
ATOM      7  C7  <0> d   1      -0.047  -0.518   2.611  0.00  0.00     0.086 A 
ENDROOT
BRANCH   6   8
ATOM      8  C8  <0> d   1      -0.496  -2.792   3.535  0.00  0.00     0.076 A 
ATOM      9  N2  <0> d   1      -1.642  -3.506   3.721  0.00  0.00    -0.276 N 
ATOM     10  N1  <0> d   1      -1.517  -4.223   4.917  0.00  0.00    -0.178 NA
ATOM     11  H1  <0> d   1      -2.409  -3.517   3.127  0.00  0.00     0.189 HD
ATOM     12  C10 <0> d   1      -0.355  -3.962   5.452  0.00  0.00     0.064 A 
ATOM     13  C9  <0> d   1       0.331  -3.061   4.618  0.00  0.00     0.029 A 
ATOM     14  C11 <0> d   1       0.165  -4.530   6.748  0.00  0.00     0.073 C 
BRANCH  13  15
ATOM     15  C12 <0> d   1       1.684  -2.503   4.851  0.00  0.00    -0.021 A 
ATOM     16  C17 <0> d   1       1.915  -1.659   5.937  0.00  0.00     0.015 A 
ATOM     17  C16 <0> d   1       3.177  -1.147   6.155  0.00  0.00     0.037 A 
ATOM     18  C15 <0> d   1       4.214  -1.460   5.287  0.00  0.00     0.068 A 
ATOM     19  C14 <0> d   1       3.986  -2.294   4.201  0.00  0.00     0.037 A 
ATOM     20  C13 <0> d   1       2.728  -2.815   3.981  0.00  0.00     0.015 A 
BRANCH  18  21
ATOM     21  O2  <0> d   1       5.455  -0.949   5.500  0.00  0.00    -0.356 OA
ATOM     22  C18 <0> d   1       5.619  -0.097   6.636  0.00  0.00     0.210 C 
ENDBRANCH  18  21
ENDBRANCH  13  15
ENDBRANCH   6   8
BRANCH   7  23
ATOM     23  O1  <0> d   1      -0.182  -0.002   3.861  0.00  0.00    -0.359 OA
ATOM     24  H7  <0> d   1      -1.097   0.187   4.111  0.00  0.00     0.217 HD
ENDBRANCH   7  23
BRANCH   3  25
ATOM     25  O3  <0> d   1       0.653   0.606  -0.778  0.00  0.00    -0.349 OA
BRANCH  25  26
ATOM     26  C19 <0> d   1       0.788  -0.004  -2.063  0.00  0.00     0.206 C 
BRANCH  26  27
ATOM     27  C20 <0> d   1       1.099   1.070  -3.108  0.00  0.00     0.299 C 
BRANCH  27  28
ATOM     28  N3  <0> d   1       2.403   1.678  -2.812  0.00  0.00     0.094 N 
ATOM     29  C24 <0> d   1       3.502   0.784  -3.206  0.00  0.00     0.298 C 
ATOM     30  C23 <0> d   1       4.838   1.429  -2.827  0.00  0.00     0.198 C 
ATOM     31  O4  <0> d   1       4.936   2.712  -3.449  0.00  0.00    -0.388 OA
ATOM     32  C22 <0> d   1       3.881   3.609  -3.088  0.00  0.00     0.198 C 
ATOM     33  C21 <0> d   1       2.536   2.986  -3.469  0.00  0.00     0.298 C 
ENDBRANCH  27  28
ENDBRANCH  26  27
ENDBRANCH  25  26
ENDBRANCH   3  25
TORSDOF 8
