REMARK  8 active torsions:
REMARK  status: ('A' for Active; 'I' for Inactive)
REMARK    1  A    between atoms: C2_2  and  O1_3 
REMARK    2  A    between atoms: O1_3  and  C3_4 
REMARK    3  A    between atoms: C6_7  and  C9_11 
REMARK    4  A    between atoms: C7_8  and  O2_10 
REMARK    5  A    between atoms: C10_12  and  O3_17 
REMARK    6  A    between atoms: O3_17  and  C12_18 
REMARK    7  A    between atoms: C17_23  and  O4_24 
REMARK    8  A    between atoms: O4_24  and  C18_25 
ROOT
ATOM      1  C9  <0> d   1       1.143  -5.999  -2.135  0.00  0.00     0.098 A 
ATOM      2  C10 <0> d   1       2.280  -6.753  -1.921  0.00  0.00     0.124 A 
ATOM      3  C11 <0> d   1       1.917  -8.100  -2.013  0.00  0.00     0.178 A 
ATOM      4  N1  <0> d   1       0.635  -8.173  -2.268  0.00  0.00    -0.184 NA
ATOM      5  N2  <0> d   1       0.115  -6.875  -2.345  0.00  0.00    -0.275 N 
ATOM      6  H1  <0> d   1      -0.809  -6.639  -2.520  0.00  0.00     0.189 HD
ENDROOT
BRANCH   1   7
ATOM      7  C6  <0> d   1       1.054  -4.524  -2.130  0.00  0.00     0.028 A 
ATOM      8  C5  <0> d   1       0.305  -3.871  -1.150  0.00  0.00     0.019 A 
ATOM      9  C4  <0> d   1       0.224  -2.495  -1.149  0.00  0.00     0.038 A 
ATOM     10  C3  <0> d   1       0.886  -1.755  -2.119  0.00  0.00     0.071 A 
ATOM     11  C8  <0> d   1       1.630  -2.396  -3.100  0.00  0.00     0.074 A 
ATOM     12  C7  <0> d   1       1.722  -3.776  -3.108  0.00  0.00     0.081 A 
BRANCH  10  13
ATOM     13  O1  <0> d   1       0.802  -0.398  -2.112  0.00  0.00    -0.351 OA
BRANCH  13  14
ATOM     14  C2  <0> d   1       0.021   0.197  -1.074  0.00  0.00     0.171 C 
ATOM     15  C1  <0> d   1       0.043   1.719  -1.229  0.00  0.00     0.034 C 
ENDBRANCH  13  14
ENDBRANCH  10  13
BRANCH  12  16
ATOM     16  O2  <0> d   1       2.453  -4.405  -4.064  0.00  0.00    -0.360 OA
ATOM     17  H10 <0> d   1       1.951  -4.628  -4.860  0.00  0.00     0.217 HD
ENDBRANCH  12  16
ENDBRANCH   1   7
BRANCH   2  18
ATOM     18  O3  <0> d   1       3.528  -6.272  -1.667  0.00  0.00    -0.304 OA
BRANCH  18  19
ATOM     19  C12 <0> d   1       4.551  -7.163  -1.588  0.00  0.00     0.109 A 
ATOM     20  C17 <0> d   1       5.209  -7.574  -2.744  0.00  0.00     0.102 A 
ATOM     21  C16 <0> d   1       6.255  -8.478  -2.658  0.00  0.00     0.039 A 
ATOM     22  C15 <0> d   1       6.637  -8.979  -1.427  0.00  0.00     0.003 A 
ATOM     23  C14 <0> d   1       5.980  -8.575  -0.280  0.00  0.00     0.003 A 
ATOM     24  C13 <0> d   1       4.939  -7.669  -0.357  0.00  0.00     0.040 A 
BRANCH  20  25
ATOM     25  O4  <0> d   1       4.829  -7.084  -3.955  0.00  0.00    -0.349 OA
BRANCH  25  26
ATOM     26  C18 <0> d   1       5.549  -7.550  -5.098  0.00  0.00     0.171 C 
ATOM     27  C19 <0> d   1       4.983  -6.894  -6.359  0.00  0.00     0.034 C 
ENDBRANCH  25  26
ENDBRANCH  20  25
ENDBRANCH  18  19
ENDBRANCH   2  18
TORSDOF 8
