REMARK  2 active torsions:
REMARK  status: ('A' for Active; 'I' for Inactive)
REMARK    1  A    between atoms: N2_5  and  C6_8 
REMARK    2  A    between atoms: C6_8  and  C7_9 
ROOT
ATOM      1  C7  <0> d   1       3.579   3.510  -0.742  0.00  0.00    -0.013 C 
ATOM      2  C8  <0> d   1       4.721   4.239  -0.569  0.00  0.00     0.092 C 
ATOM      3  C9  <0> d   1       4.651   5.514   0.023  0.00  0.00     0.288 C 
ATOM      4  O1  <0> d   1       5.674   6.114   0.297  0.00  0.00    -0.260 OA
ATOM      5  O2  <0> d   1       3.458   6.077   0.268  0.00  0.00    -0.275 OA
ATOM      6  C10 <0> d   1       2.315   5.371   0.127  0.00  0.00     0.091 C 
ATOM      7  C11 <0> d   1       2.363   4.011  -0.230  0.00  0.00     0.017 C 
ATOM      8  C12 <0> d   1       1.130   3.236  -0.128  0.00  0.00    -0.012 C 
ATOM      9  C13 <0> d   1       1.075   1.843  -0.137  0.00  0.00     0.013 C 
ATOM     10  C14 <0> d   1      -0.126   1.195  -0.195  0.00  0.00     0.001 C 
ATOM     11  C15 <0> d   1      -1.319   1.907  -0.268  0.00  0.00     0.001 C 
ATOM     12  C16 <0> d   1      -1.313   3.268  -0.201  0.00  0.00     0.012 C 
ATOM     13  C17 <0> d   1      -0.097   3.949  -0.038  0.00  0.00    -0.025 C 
ATOM     14  C18 <0> d   1      -0.081   5.324   0.265  0.00  0.00     0.015 C 
ATOM     15  C19 <0> d   1       1.091   5.994   0.382  0.00  0.00     0.039 C 
ENDROOT
BRANCH   1  16
ATOM     16  C6  <0> d   1       3.672   2.236  -1.543  0.00  0.00     0.274 C 
BRANCH  16  17
ATOM     17  N2  <0> d   1       3.827   1.095  -0.632  0.00  0.00    -0.064 N 
ATOM     18  C3  <0> d   1       3.684  -0.178  -1.354  0.00  0.00     0.265 C 
ATOM     19  C2  <0> d   1       3.772  -1.338  -0.359  0.00  0.00     0.299 C 
ATOM     20  N1  <0> d   1       5.060  -1.278   0.346  0.00  0.00     0.087 N 
ATOM     21  C1  <0> d   1       5.215  -2.420   1.257  0.00  0.00     0.310 C 
ATOM     22  C5  <0> d   1       5.204  -0.005   1.067  0.00  0.00     0.299 C 
ATOM     23  C4  <0> d   1       5.115   1.155   0.073  0.00  0.00     0.265 C 
ATOM     24  H21 <0> d   1       3.025   1.151   0.119  0.00  0.00     0.280 HD
ENDBRANCH  16  17
ENDBRANCH   1  16
TORSDOF 2
