REMARK  4 active torsions:
REMARK  status: ('A' for Active; 'I' for Inactive)
REMARK    1  A    between atoms: C5_5  and  C7_7 
REMARK    2  A    between atoms: N1_19  and  C18_22 
REMARK    3  A    between atoms: C18_22  and  C19_23 
REMARK    4  A    between atoms: C19_23  and  N2_24 
ROOT
ATOM      1  C7  <0> d   1       1.255  -2.153  -0.023  0.00  0.00     0.054 C 
ATOM      2  C8  <0> d   1       0.100  -2.855   0.087  0.00  0.00     0.128 A 
ATOM      3  C9  <0> d   1      -0.022  -4.317   0.202  0.00  0.00     0.218 A 
ATOM      4  O1  <0> d   1       0.875  -5.141   0.219  0.00  0.00    -0.284 OA
ATOM      5  C10 <0> d   1      -1.473  -4.560   0.293  0.00  0.00     0.051 A 
ATOM      6  C11 <0> d   1      -2.242  -5.718   0.419  0.00  0.00     0.021 A 
ATOM      7  C12 <0> d   1      -3.602  -5.627   0.480  0.00  0.00     0.038 A 
ATOM      8  C13 <0> d   1      -4.229  -4.382   0.419  0.00  0.00     0.082 A 
ATOM      9  C14 <0> d   1      -3.478  -3.226   0.296  0.00  0.00     0.038 A 
ATOM     10  C15 <0> d   1      -2.091  -3.301   0.231  0.00  0.00     0.101 A 
ATOM     11  O2  <0> d   1      -1.151  -2.337   0.116  0.00  0.00    -0.305 OA
ATOM     12  C16 <0> d   1      -4.143  -1.875   0.236  0.00  0.00     0.319 C 
ATOM     13  N1  <0> d   1      -5.566  -2.039  -0.091  0.00  0.00     0.117 N 
ATOM     14  C17 <0> d   1      -6.172  -3.058   0.782  0.00  0.00     0.447 C 
ATOM     15  O3  <0> d   1      -5.586  -4.326   0.479  0.00  0.00    -0.321 OA
ENDROOT
BRANCH   1  16
ATOM     16  C5  <0> d   1       1.231  -0.685   0.033  0.00  0.00    -0.016 A 
ATOM     17  C4  <0> d   1       2.410   0.030   0.278  0.00  0.00     0.021 A 
ATOM     18  C3  <0> d   1       2.378   1.409   0.328  0.00  0.00     0.020 A 
ATOM     19 Br1  <0> d   1       4.041  -0.891   0.537  0.00  0.00    -0.050 Br
ATOM     20  C2  <0> d   1       1.185   2.084   0.138  0.00  0.00     0.001 A 
ATOM     21  C1  <0> d   1       0.015   1.385  -0.104  0.00  0.00     0.001 A 
ATOM     22  C6  <0> d   1       0.029   0.007  -0.158  0.00  0.00     0.013 A 
ENDBRANCH   1  16
BRANCH  13  23
ATOM     23  C18 <0> d   1      -6.282  -0.761   0.015  0.00  0.00     0.305 C 
BRANCH  23  24
ATOM     24  C19 <0> d   1      -7.689  -0.915  -0.567  0.00  0.00     0.302 C 
BRANCH  24  25
ATOM     25  N2  <0> d   1      -8.405   0.363  -0.460  0.00  0.00     0.094 N 
ATOM     26  C23 <0> d   1      -9.665   0.326  -1.217  0.00  0.00     0.298 C 
ATOM     27  C22 <0> d   1     -10.348   1.693  -1.128  0.00  0.00     0.198 C 
ATOM     28  O4  <0> d   1     -10.552   2.030   0.246  0.00  0.00    -0.388 OA
ATOM     29  C21 <0> d   1      -9.345   2.077   1.013  0.00  0.00     0.198 C 
ATOM     30  C20 <0> d   1      -8.652   0.713   0.946  0.00  0.00     0.298 C 
ENDBRANCH  24  25
ENDBRANCH  23  24
ENDBRANCH  13  23
TORSDOF 4
