REMARK  3 active torsions:
REMARK  status: ('A' for Active; 'I' for Inactive)
REMARK    1  A    between atoms: C3_3  and  C6_7 
REMARK    2  A    between atoms: C6_7  and  C7_9 
REMARK    3  A    between atoms: C12_14  and  O2_15 
ROOT
ATOM      1  C7  <0> d   1      -2.394   5.405   0.164  0.00  0.00     0.048 A 
ATOM      2  C8  <0> d   1      -1.164   6.072   0.157  0.00  0.00     0.021 A 
ATOM      3  C9  <0> d   1      -1.123   7.432   0.267  0.00  0.00     0.041 A 
ATOM      4  C10 <0> d   1      -2.301   8.165   0.386  0.00  0.00     0.110 A 
ATOM      5  C11 <0> d   1      -3.529   7.519   0.395  0.00  0.00     0.077 A 
ATOM      6  C12 <0> d   1      -3.585   6.141   0.279  0.00  0.00     0.082 A 
ATOM      7  O3  <0> d   1      -2.248   9.517   0.494  0.00  0.00    -0.192 OA
ENDROOT
BRANCH   1   8
ATOM      8  C6  <0> d   1      -2.440   3.938   0.046  0.00  0.00     0.196 C 
ATOM      9  O1  <0> d   1      -3.510   3.371  -0.069  0.00  0.00    -0.286 OA
BRANCH   8  10
ATOM     10  C3  <0> d   1      -1.187   3.156   0.066  0.00  0.00     0.032 A 
ATOM     11  C2  <0> d   1      -0.104   3.566   0.854  0.00  0.00     0.018 A 
ATOM     12  C1  <0> d   1       1.049   2.800   0.834  0.00  0.00     0.020 A 
ATOM     13  C5  <0> d   1       1.091   1.660   0.052  0.00  0.00     0.116 A 
ATOM     14  N1  <0> d   1       0.053   1.295  -0.677  0.00  0.00    -0.272 NA
ATOM     15  C4  <0> d   1      -1.064   1.992  -0.695  0.00  0.00     0.131 A 
ENDBRANCH   8  10
ENDBRANCH   1   8
BRANCH   6  16
ATOM     16  O2  <0> d   1      -4.783   5.504   0.282  0.00  0.00    -0.360 OA
ATOM     17  H8  <0> d   1      -5.714   6.083   0.373  0.00  0.00     0.217 HD
ENDBRANCH   6  16
TORSDOF 3
