REMARK  1 active torsions:
REMARK  status: ('A' for Active; 'I' for Inactive)
REMARK    1  A    between atoms: C5_5  and  C7_7 
ROOT
ATOM      1  C7  <0> d   1       1.239  -0.426  -0.012  0.00  0.00     0.110 A 
ATOM      2  C8  <0> d   1       2.102   0.764  -0.084  0.00  0.00     0.032 A 
ATOM      3  C9  <0> d   1       3.482   0.948  -0.178  0.00  0.00     0.020 A 
ATOM      4  C10 <0> d   1       3.998   2.211  -0.230  0.00  0.00     0.041 A 
ATOM      5  C11 <0> d   1       3.156   3.320  -0.187  0.00  0.00     0.110 A 
ATOM      6  C12 <0> d   1       1.785   3.155  -0.094  0.00  0.00     0.080 A 
ATOM      7  C13 <0> d   1       1.246   1.877  -0.042  0.00  0.00     0.116 A 
ATOM      8  O1  <0> d   1      -0.016   1.409   0.048  0.00  0.00    -0.212 OA
ATOM      9  N1  <0> d   1       0.004  -0.004   0.065  0.00  0.00    -0.126 NA
ATOM     10  O2  <0> d   1       3.684   4.570  -0.239  0.00  0.00    -0.192 OA
ENDROOT
BRANCH   1  11
ATOM     11  C5  <0> d   1       1.686  -1.839  -0.024  0.00  0.00     0.034 A 
ATOM     12  C4  <0> d   1       1.171  -2.745   0.904  0.00  0.00     0.129 A 
ATOM     13  C3  <0> d   1       1.589  -4.064   0.882  0.00  0.00     0.043 A 
ATOM     14  F1  <0> d   1       0.263  -2.337   1.817  0.00  0.00    -0.205 F 
ATOM     15  C2  <0> d   1       2.523  -4.480  -0.048  0.00  0.00     0.003 A 
ATOM     16  C1  <0> d   1       3.041  -3.583  -0.966  0.00  0.00     0.001 A 
ATOM     17  C6  <0> d   1       2.628  -2.267  -0.959  0.00  0.00     0.017 A 
ENDBRANCH   1  11
TORSDOF 1
