REMARK  6 active torsions:
REMARK  status: ('A' for Active; 'I' for Inactive)
REMARK    1  A    between atoms: C6_6  and  O5_31 
REMARK    2  A    between atoms: C7_7  and  C19_23 
REMARK    3  A    between atoms: C10_12  and  C11_13 
REMARK    4  A    between atoms: C13_15  and  O4_21 
REMARK    5  A    between atoms: C16_18  and  O3_19 
REMARK    6  A    between atoms: C19_23  and  N1_24 
ROOT
ATOM      1  C1  <0> d   1      -0.013   1.086   0.008  0.00  0.00     0.050 C 
ATOM      2  C2  <0> d   1      -0.718   1.572   1.248  0.00  0.00    -0.032 A 
ATOM      3  C3  <0> d   1      -2.118   1.799   1.239  0.00  0.00     0.006 A 
ATOM      4  C4  <0> d   1      -2.864   1.561   0.074  0.00  0.00     0.017 A 
ATOM      5  C5  <0> d   1      -4.211   1.775   0.072  0.00  0.00     0.038 A 
ATOM      6  C6  <0> d   1      -4.855   2.225   1.223  0.00  0.00     0.076 A 
ATOM      7  C7  <0> d   1      -4.137   2.459   2.384  0.00  0.00     0.038 A 
ATOM      8  C8  <0> d   1      -2.765   2.247   2.405  0.00  0.00     0.101 A 
ATOM      9  O1  <0> d   1      -2.065   2.476   3.537  0.00  0.00    -0.273 OA
ATOM     10  C9  <0> d   1      -0.737   2.279   3.586  0.00  0.00     0.300 A 
ATOM     11  O2  <0> d   1      -0.129   2.493   4.619  0.00  0.00    -0.259 OA
ATOM     12  C10 <0> d   1      -0.018   1.807   2.400  0.00  0.00     0.059 A 
ENDROOT
BRANCH  12  13
ATOM     13  C11 <0> d   1       1.447   1.588   2.447  0.00  0.00     0.017 A 
ATOM     14  C16 <0> d   1       1.958   0.339   2.814  0.00  0.00     0.079 A 
ATOM     15  C15 <0> d   1       3.329   0.140   2.856  0.00  0.00     0.040 A 
ATOM     16  C14 <0> d   1       4.189   1.173   2.536  0.00  0.00     0.039 A 
ATOM     17  C13 <0> d   1       3.688   2.415   2.171  0.00  0.00     0.069 A 
ATOM     18  C12 <0> d   1       2.320   2.624   2.120  0.00  0.00     0.052 A 
BRANCH  14  19
ATOM     19  O3  <0> d   1       1.113  -0.678   3.128  0.00  0.00    -0.355 OA
ATOM     20  C17 <0> d   1       1.706  -1.926   3.494  0.00  0.00     0.210 C 
ENDBRANCH  14  19
BRANCH  17  21
ATOM     21  O4  <0> d   1       4.541   3.426   1.857  0.00  0.00    -0.356 OA
ATOM     22  C18 <0> d   1       5.939   3.140   1.925  0.00  0.00     0.210 C 
ENDBRANCH  17  21
ENDBRANCH  12  13
BRANCH   7  23
ATOM     23  C19 <0> d   1      -4.844   2.946   3.623  0.00  0.00     0.317 C 
BRANCH  23  24
ATOM     24  N1  <0> d   1      -4.864   4.415   3.630  0.00  0.00     0.096 N 
ATOM     25  C23 <0> d   1      -5.744   4.924   4.691  0.00  0.00     0.303 C 
ATOM     26  C22 <0> d   1      -5.801   6.451   4.615  0.00  0.00     0.302 C 
ATOM     27  N2  <0> d   1      -4.443   6.996   4.754  0.00  0.00     0.087 N 
ATOM     28  C21 <0> d   1      -3.563   6.487   3.693  0.00  0.00     0.302 C 
ATOM     29  C24 <0> d   1      -4.463   8.465   4.762  0.00  0.00     0.310 C 
ATOM     30  C20 <0> d   1      -3.507   4.960   3.769  0.00  0.00     0.303 C 
ENDBRANCH  23  24
ENDBRANCH   7  23
BRANCH   6  31
ATOM     31  O5  <0> d   1      -6.196   2.433   1.207  0.00  0.00    -0.360 OA
ATOM     32  H28 <0> d   1      -6.709   2.788   2.113  0.00  0.00     0.217 HD
ENDBRANCH   6  31
TORSDOF 6
