REMARK  6 active torsions:
REMARK  status: ('A' for Active; 'I' for Inactive)
REMARK    1  A    between atoms: C2_2  and  O1_3 
REMARK    2  A    between atoms: O1_3  and  C3_4 
REMARK    3  A    between atoms: C6_7  and  C9_10 
REMARK    4  A    between atoms: C15_17  and  O4_29 
REMARK    5  A    between atoms: C16_18  and  C18_21 
REMARK    6  A    between atoms: C18_21  and  N1_22 
ROOT
ATOM      1  C9  <0> d   1       1.141  -6.024   1.761  0.00  0.00     0.053 C 
ATOM      2  C10 <0> d   1       1.867  -6.540   2.786  0.00  0.00     0.127 A 
ATOM      3  C11 <0> d   1       2.165  -7.962   3.010  0.00  0.00     0.218 A 
ATOM      4  O2  <0> d   1       1.821  -8.912   2.330  0.00  0.00    -0.284 OA
ATOM      5  C12 <0> d   1       2.975  -7.980   4.242  0.00  0.00     0.051 A 
ATOM      6  C13 <0> d   1       3.567  -9.005   4.980  0.00  0.00     0.021 A 
ATOM      7  C14 <0> d   1       4.276  -8.710   6.110  0.00  0.00     0.038 A 
ATOM      8  C15 <0> d   1       4.408  -7.388   6.526  0.00  0.00     0.076 A 
ATOM      9  C16 <0> d   1       3.825  -6.359   5.804  0.00  0.00     0.038 A 
ATOM     10  C17 <0> d   1       3.102  -6.643   4.652  0.00  0.00     0.101 A 
ATOM     11  O3  <0> d   1       2.454  -5.837   3.783  0.00  0.00    -0.305 OA
ENDROOT
BRANCH   1  12
ATOM     12  C6  <0> d   1       1.028  -4.570   1.600  0.00  0.00    -0.033 A 
ATOM     13  C5  <0> d   1       1.559  -3.712   2.572  0.00  0.00     0.014 A 
ATOM     14  C4  <0> d   1       1.450  -2.348   2.416  0.00  0.00     0.037 A 
ATOM     15  C3  <0> d   1       0.815  -1.823   1.296  0.00  0.00     0.068 A 
ATOM     16  C8  <0> d   1       0.282  -2.670   0.331  0.00  0.00     0.037 A 
ATOM     17  C7  <0> d   1       0.389  -4.034   0.474  0.00  0.00     0.014 A 
BRANCH  15  18
ATOM     18  O1  <0> d   1       0.711  -0.477   1.148  0.00  0.00    -0.352 OA
BRANCH  18  19
ATOM     19  C2  <0> d   1       1.281   0.335   2.176  0.00  0.00     0.171 C 
ATOM     20  C1  <0> d   1       1.067   1.812   1.837  0.00  0.00     0.034 C 
ENDBRANCH  18  19
ENDBRANCH  15  18
ENDBRANCH   1  12
BRANCH   9  21
ATOM     21  C18 <0> d   1       3.977  -4.933   6.267  0.00  0.00     0.317 C 
BRANCH  21  22
ATOM     22  N1  <0> d   1       5.180  -4.347   5.662  0.00  0.00     0.096 N 
ATOM     23  C22 <0> d   1       5.234  -2.897   5.896  0.00  0.00     0.303 C 
ATOM     24  C21 <0> d   1       6.457  -2.314   5.184  0.00  0.00     0.302 C 
ATOM     25  N2  <0> d   1       7.672  -2.971   5.685  0.00  0.00     0.087 N 
ATOM     26  C20 <0> d   1       7.618  -4.421   5.450  0.00  0.00     0.302 C 
ATOM     27  C23 <0> d   1       8.876  -2.385   5.080  0.00  0.00     0.310 C 
ATOM     28  C19 <0> d   1       6.395  -5.005   6.162  0.00  0.00     0.303 C 
ENDBRANCH  21  22
ENDBRANCH   9  21
BRANCH   8  29
ATOM     29  O4  <0> d   1       5.114  -7.104   7.651  0.00  0.00    -0.360 OA
ATOM     30  H26 <0> d   1       6.055  -6.944   7.494  0.00  0.00     0.217 HD
ENDBRANCH   8  29
TORSDOF 6
