REMARK  4 active torsions:
REMARK  status: ('A' for Active; 'I' for Inactive)
REMARK    1  A    between atoms: C5_5  and  C18_21 
REMARK    2  A    between atoms: C10_11  and  C11_12 
REMARK    3  A    between atoms: C16_17  and  O2_18 
REMARK    4  A    between atoms: C18_21  and  N1_22 
ROOT
ATOM      1  C1  <0> d   1      -1.462  -7.976   1.808  0.00  0.00     0.049 C 
ATOM      2  C2  <0> d   1      -0.669  -7.749   0.546  0.00  0.00    -0.042 A 
ATOM      3  C3  <0> d   1      -0.281  -8.812  -0.219  0.00  0.00     0.048 A 
ATOM      4  C4  <0> d   1       0.450  -8.605  -1.385  0.00  0.00     0.118 A 
ATOM      5  C5  <0> d   1       0.793  -7.322  -1.784  0.00  0.00     0.041 A 
ATOM      6  C6  <0> d   1       0.406  -6.230  -1.017  0.00  0.00     0.102 A 
ATOM      7  C7  <0> d   1      -0.331  -6.452   0.157  0.00  0.00     0.057 A 
ATOM      8  C8  <0> d   1      -0.589  -5.124   0.743  0.00  0.00     0.219 A 
ATOM      9  O1  <0> d   1      -1.197  -4.866   1.767  0.00  0.00    -0.284 OA
ATOM     10  C9  <0> d   1       0.053  -4.181  -0.184  0.00  0.00     0.128 A 
ATOM     11  C10 <0> d   1       0.081  -2.829  -0.061  0.00  0.00     0.055 C 
ATOM     12  O3  <0> d   1       0.606  -4.905  -1.186  0.00  0.00    -0.305 OA
ATOM     13  O5  <0> d   1       0.831  -9.668  -2.139  0.00  0.00    -0.191 OA
ENDROOT
BRANCH  11  14
ATOM     14  C11 <0> d   1       0.618  -2.005  -1.150  0.00  0.00    -0.000 A 
ATOM     15  C16 <0> d   1       0.333  -0.630  -1.202  0.00  0.00     0.078 A 
ATOM     16  C15 <0> d   1       0.851   0.139  -2.232  0.00  0.00     0.037 A 
ATOM     17  C14 <0> d   1       1.637  -0.446  -3.206  0.00  0.00     0.003 A 
ATOM     18  C13 <0> d   1       1.917  -1.802  -3.162  0.00  0.00     0.001 A 
ATOM     19  C12 <0> d   1       1.412  -2.584  -2.147  0.00  0.00     0.014 A 
BRANCH  15  20
ATOM     20  O2  <0> d   1      -0.439  -0.057  -0.245  0.00  0.00    -0.355 OA
ATOM     21  C17 <0> d   1      -0.680   1.347  -0.361  0.00  0.00     0.210 C 
ENDBRANCH  15  20
ENDBRANCH  11  14
BRANCH   5  22
ATOM     22  C18 <0> d   1       1.585  -7.113  -3.048  0.00  0.00     0.317 C 
BRANCH  22  23
ATOM     23  N1  <0> d   1       3.021  -7.136  -2.736  0.00  0.00     0.097 N 
ATOM     24  C22 <0> d   1       3.827  -7.173  -3.965  0.00  0.00     0.299 C 
ATOM     25  C21 <0> d   1       5.310  -7.255  -3.594  0.00  0.00     0.198 C 
ATOM     26  O4  <0> d   1       5.649  -6.147  -2.757  0.00  0.00    -0.388 OA
ATOM     27  C20 <0> d   1       4.884  -6.080  -1.550  0.00  0.00     0.198 C 
ATOM     28  C19 <0> d   1       3.397  -5.986  -1.901  0.00  0.00     0.299 C 
ENDBRANCH  22  23
ENDBRANCH   5  22
TORSDOF 4
