REMARK  2 active torsions:
REMARK  status: ('A' for Active; 'I' for Inactive)
REMARK    1  A    between atoms: C9_10  and  C10_11 
REMARK    2  A    between atoms: N2_20  and  C18_23 
ROOT
ATOM      1  C1  <0> d   1      -0.018   1.503   0.010  0.00  0.00     0.054 C 
ATOM      2  C2  <0> d   1       0.002  -0.004   0.002  0.00  0.00     0.007 A 
ATOM      3  C3  <0> d   1       0.006  -0.690  -1.205  0.00  0.00     0.087 A 
ATOM      4  C4  <0> d   1       0.026  -2.080  -1.226  0.00  0.00     0.003 A 
ATOM      5  C5  <0> d   1       0.040  -2.783  -0.052  0.00  0.00     0.030 A 
ATOM      6  C6  <0> d   1       0.036  -2.107   1.167  0.00  0.00     0.052 A 
ATOM      7  C7  <0> d   1       0.023  -0.703   1.201  0.00  0.00     0.099 A 
ATOM      8  O1  <0> d   1       0.030  -0.276   2.483  0.00  0.00    -0.305 OA
ATOM      9  C8  <0> d   1       0.052  -1.308   3.358  0.00  0.00     0.129 A 
ATOM     10  C9  <0> d   1       0.063  -1.214   4.709  0.00  0.00     0.073 C 
ATOM     11  C15 <0> d   1       0.048  -2.556   2.571  0.00  0.00     0.218 A 
ATOM     12  O2  <0> d   1       0.064  -3.701   2.988  0.00  0.00    -0.284 OA
ATOM     13  C16 <0> d   1       0.035  -2.830  -2.534  0.00  0.00     0.279 C 
ATOM     14  N2  <0> d   1      -0.415  -1.943  -3.615  0.00  0.00    -0.042 N 
ATOM     15  C17 <0> d   1       0.353  -0.690  -3.556  0.00  0.00     0.410 C 
ATOM     16  O3  <0> d   1      -0.011   0.016  -2.367  0.00  0.00    -0.323 OA
ATOM     17  H19 <0> d   1      -1.397  -1.743  -3.502  0.00  0.00     0.283 HD
ENDROOT
BRANCH  10  18
ATOM     18  C10 <0> d   1       0.051   0.109   5.354  0.00  0.00     0.059 A 
ATOM     19  N1  <0> d   1       0.030   1.208   4.605  0.00  0.00    -0.261 NA
ATOM     20  C14 <0> d   1       0.015   2.409   5.144  0.00  0.00     0.117 A 
ATOM     21  C13 <0> d   1       0.031   2.572   6.519  0.00  0.00     0.019 A 
ATOM     22  C12 <0> d   1       0.058   1.452   7.339  0.00  0.00     0.004 A 
ATOM     23  C11 <0> d   1       0.069   0.201   6.748  0.00  0.00     0.031 A 
ENDBRANCH  10  18
BRANCH  14  24
ATOM     24  C18 <0> d   1      -0.191  -2.596  -4.912  0.00  0.00     0.191 A 
ATOM     25  C20 <0> d   1      -0.898  -3.929  -5.163  0.00  0.00     0.035 A 
ATOM     26  C19 <0> d   1      -1.372  -2.664  -5.882  0.00  0.00     0.035 A 
ENDBRANCH  14  24
TORSDOF 2
