REMARK  4 active torsions:
REMARK  status: ('A' for Active; 'I' for Inactive)
REMARK    1  A    between atoms: C3_3  and  C18_22 
REMARK    2  A    between atoms: C9_10  and  C11_13 
REMARK    3  A    between atoms: C11_13  and  N1_14 
REMARK    4  A    between atoms: C23_27  and  O4_28 
ROOT
ATOM      1  C1  <0> d   1       0.950   3.592   0.012  0.00  0.00     0.077 C 
ATOM      2  C2  <0> d   1       1.090   2.092   0.003  0.00  0.00     0.065 A 
ATOM      3  C3  <0> d   1       2.337   1.553  -0.011  0.00  0.00     0.057 A 
ATOM      4  C4  <0> d   1       2.474   0.086  -0.021  0.00  0.00     0.198 A 
ATOM      5  O1  <0> d   1       3.567  -0.453  -0.034  0.00  0.00    -0.286 OA
ATOM      6  C5  <0> d   1       1.225  -0.697  -0.013  0.00  0.00     0.050 A 
ATOM      7  C6  <0> d   1       1.246  -2.092  -0.021  0.00  0.00     0.021 A 
ATOM      8  C7  <0> d   1       0.071  -2.788  -0.014  0.00  0.00     0.041 A 
ATOM      9  C8  <0> d   1      -1.147  -2.111   0.001  0.00  0.00     0.118 A 
ATOM     10  C9  <0> d   1      -1.184  -0.727   0.009  0.00  0.00     0.039 A 
ATOM     11  C10 <0> d   1       0.002  -0.004   0.002  0.00  0.00     0.100 A 
ATOM     12  O2  <0> d   1      -0.016   1.343   0.009  0.00  0.00    -0.313 OA
ATOM     13  O3  <0> d   1      -2.308  -2.814   0.007  0.00  0.00    -0.191 OA
ENDROOT
BRANCH  10  14
ATOM     14  C11 <0> d   1      -2.507  -0.007   0.026  0.00  0.00     0.279 C 
BRANCH  14  15
ATOM     15  N1  <0> d   1      -2.951   0.236  -1.354  0.00  0.00    -0.067 N 
ATOM     16  C16 <0> d   1      -4.337   0.719  -1.384  0.00  0.00     0.235 C 
ATOM     17  C15 <0> d   1      -4.716   1.098  -2.817  0.00  0.00     0.032 C 
ATOM     18  C14 <0> d   1      -4.563  -0.128  -3.721  0.00  0.00    -0.015 C 
ATOM     19  C13 <0> d   1      -3.123  -0.641  -3.635  0.00  0.00     0.032 C 
ATOM     20  C17 <0> d   1      -4.882   0.259  -5.167  0.00  0.00     0.010 C 
ATOM     21  C12 <0> d   1      -2.791  -0.970  -2.177  0.00  0.00     0.235 C 
ATOM     22  H27 <0> d   1      -2.312   1.022  -1.782  0.00  0.00     0.280 HD
ENDBRANCH  14  15
ENDBRANCH  10  14
BRANCH   3  23
ATOM     23  C18 <0> d   1       3.537   2.425  -0.018  0.00  0.00     0.014 A 
ATOM     24  C23 <0> d   1       4.117   2.830   1.188  0.00  0.00     0.079 A 
ATOM     25  C22 <0> d   1       5.237   3.644   1.172  0.00  0.00     0.037 A 
ATOM     26  C21 <0> d   1       5.780   4.053  -0.032  0.00  0.00     0.003 A 
ATOM     27  C20 <0> d   1       5.208   3.653  -1.226  0.00  0.00     0.001 A 
ATOM     28  C19 <0> d   1       4.095   2.838  -1.226  0.00  0.00     0.015 A 
BRANCH  24  29
ATOM     29  O4  <0> d   1       3.583   2.427   2.371  0.00  0.00    -0.355 OA
ATOM     30  C24 <0> d   1       4.229   2.881   3.562  0.00  0.00     0.210 C 
ENDBRANCH  24  29
ENDBRANCH   3  23
TORSDOF 4
