REMARK  7 active torsions:
REMARK  status: ('A' for Active; 'I' for Inactive)
REMARK    1  A    between atoms: C6_6  and  C7_7 
REMARK    2  A    between atoms: C8_8  and  C11_17 
REMARK    3  A    between atoms: C9_12  and  C10_13 
REMARK    4  A    between atoms: C14_20  and  O2_24 
REMARK    5  A    between atoms: O2_24  and  C17_25 
REMARK    6  A    between atoms: C17_25  and  C18_26 
REMARK       I    between atoms: C18_26  and  N3_28 
REMARK    7  A    between atoms: N3_28  and  N4_29 
ROOT
ATOM      1  C7  <0> d   1      -1.178  -1.739   0.253  0.00  0.00     0.039 A 
ATOM      2  C8  <0> d   1      -1.734  -1.508  -1.031  0.00  0.00     0.103 A 
ATOM      3  N1  <0> d   1      -2.983  -1.133  -0.867  0.00  0.00    -0.173 NA
ATOM      4  H1  <0> d   1      -4.112  -0.872   0.907  0.00  0.00     0.189 HD
ATOM      5  N2  <0> d   1      -3.263  -1.112   0.504  0.00  0.00    -0.272 N 
ATOM      6  C9  <0> d   1      -2.153  -1.489   1.171  0.00  0.00     0.147 A 
ENDROOT
BRANCH   2   7
ATOM      7  C11 <0> d   1      -1.031  -1.661  -2.327  0.00  0.00     0.032 A 
ATOM      8  C16 <0> d   1      -1.640  -2.355  -3.378  0.00  0.00     0.122 A 
ATOM      9  C15 <0> d   1      -0.981  -2.489  -4.588  0.00  0.00     0.077 A 
ATOM     10  O1  <0> d   1      -2.878  -2.890  -3.213  0.00  0.00    -0.191 OA
ATOM     11  C14 <0> d   1       0.285  -1.947  -4.752  0.00  0.00     0.072 A 
ATOM     12  C13 <0> d   1       0.893  -1.263  -3.708  0.00  0.00     0.038 A 
ATOM     13  C12 <0> d   1       0.242  -1.119  -2.501  0.00  0.00     0.019 A 
BRANCH  11  14
ATOM     14  O2  <0> d   1       0.932  -2.086  -5.939  0.00  0.00    -0.342 OA
BRANCH  14  15
ATOM     15  C17 <0> d   1       0.250  -2.801  -6.971  0.00  0.00     0.279 C 
BRANCH  15  16
ATOM     16  C18 <0> d   1       1.115  -2.852  -8.204  0.00  0.00     0.255 C 
ATOM     17  O3  <0> d   1       2.209  -2.329  -8.199  0.00  0.00    -0.270 OA
ATOM     18  N3  <0> d   1       0.674  -3.481  -9.311  0.00  0.00    -0.292 N 
ATOM     19  H11 <0> d   1      -0.201  -3.900  -9.315  0.00  0.00     0.183 HD
BRANCH  18  20
ATOM     20  N4  <0> d   1       1.458  -3.527 -10.428  0.00  0.00    -0.247 NA
ATOM     21  H12 <0> d   1       2.358  -3.935 -10.222  0.00  0.00     0.143 HD
ATOM     22  H13 <0> d   1       0.997  -4.028 -11.173  0.00  0.00     0.143 HD
ENDBRANCH  18  20
ENDBRANCH  15  16
ENDBRANCH  14  15
ENDBRANCH  11  14
ENDBRANCH   2   7
BRANCH   1  23
ATOM     23  C6  <0> d   1       0.209  -2.178   0.542  0.00  0.00    -0.021 A 
ATOM     24  C1  <0> d   1       1.096  -1.315   1.183  0.00  0.00     0.014 A 
ATOM     25  C2  <0> d   1       2.385  -1.728   1.451  0.00  0.00     0.020 A 
ATOM     26  C3  <0> d   1       2.798  -2.997   1.084  0.00  0.00     0.011 A 
ATOM     27  C4  <0> d   1       1.921  -3.857   0.447  0.00  0.00     0.020 A 
ATOM     28 Br1  <0> d   1       4.566  -3.556   1.453  0.00  0.00    -0.051 Br
ATOM     29  C5  <0> d   1       0.630  -3.454   0.175  0.00  0.00     0.014 A 
ENDBRANCH   1  23
BRANCH   6  30
ATOM     30  C10 <0> d   1      -2.015  -1.611   2.667  0.00  0.00     0.434 C 
ATOM     31  F1  <0> d   1      -3.228  -1.272   3.277  0.00  0.00    -0.165 F 
ATOM     32  F2  <0> d   1      -1.678  -2.927   2.999  0.00  0.00    -0.165 F 
ATOM     33  F3  <0> d   1      -1.011  -0.745   3.115  0.00  0.00    -0.165 F 
ENDBRANCH   6  30
TORSDOF 7
