REMARK  4 active torsions:
REMARK  status: ('A' for Active; 'I' for Inactive)
REMARK    1  A    between atoms: N2_5  and  C6_8 
REMARK    2  A    between atoms: C6_8  and  C7_9 
REMARK    3  A    between atoms: C8_10  and  O5_31 
REMARK    4  A    between atoms: C14_17  and  C15_18 
ROOT
ATOM      1  C7  <0> d   1       0.012  -3.710   2.765  0.00  0.00     0.038 A 
ATOM      2  C8  <0> d   1       1.367  -3.761   3.047  0.00  0.00     0.076 A 
ATOM      3  C9  <0> d   1       1.821  -4.309   4.244  0.00  0.00     0.038 A 
ATOM      4  C10 <0> d   1       0.929  -4.803   5.154  0.00  0.00     0.021 A 
ATOM      5  C11 <0> d   1      -0.438  -4.758   4.883  0.00  0.00     0.051 A 
ATOM      6  C12 <0> d   1      -0.908  -4.203   3.682  0.00  0.00     0.101 A 
ATOM      7  O1  <0> d   1      -2.257  -4.265   3.648  0.00  0.00    -0.305 OA
ATOM      8  C13 <0> d   1      -2.763  -4.832   4.769  0.00  0.00     0.128 A 
ATOM      9  C14 <0> d   1      -4.077  -5.039   5.040  0.00  0.00     0.055 C 
ATOM     10  C23 <0> d   1      -1.630  -5.195   5.633  0.00  0.00     0.218 A 
ATOM     11  O4  <0> d   1      -1.669  -5.725   6.729  0.00  0.00    -0.284 OA
ENDROOT
BRANCH   9  12
ATOM     12  C15 <0> d   1      -5.105  -4.505   4.139  0.00  0.00     0.002 A 
ATOM     13  C20 <0> d   1      -6.438  -4.398   4.572  0.00  0.00     0.090 A 
ATOM     14  C19 <0> d   1      -7.398  -3.883   3.718  0.00  0.00     0.001 A 
ATOM     15  O2  <0> d   1      -6.771  -4.800   5.825  0.00  0.00    -0.325 OA
ATOM     16  C18 <0> d   1      -7.048  -3.492   2.439  0.00  0.00     0.031 A 
ATOM     17  C22 <0> d   1      -8.830  -3.749   4.172  0.00  0.00     0.212 C 
ATOM     18  C17 <0> d   1      -5.737  -3.603   2.003  0.00  0.00     0.012 A 
ATOM     19  C16 <0> d   1      -4.765  -4.105   2.841  0.00  0.00     0.033 A 
ATOM     20 Br1  <0> d   1      -5.279  -3.064   0.249  0.00  0.00    -0.051 Br
ATOM     21  O3  <0> d   1      -9.032  -4.557   5.340  0.00  0.00    -0.362 OA
ATOM     22  C21 <0> d   1      -8.027  -4.346   6.338  0.00  0.00     0.345 C 
ENDBRANCH   9  12
BRANCH   1  23
ATOM     23  C6  <0> d   1      -0.465  -3.113   1.466  0.00  0.00     0.317 C 
BRANCH  23  24
ATOM     24  N2  <0> d   1      -0.692  -1.673   1.642  0.00  0.00     0.096 N 
ATOM     25  C3  <0> d   1      -1.378  -1.101   0.475  0.00  0.00     0.303 C 
ATOM     26  C2  <0> d   1      -1.666   0.381   0.732  0.00  0.00     0.302 C 
ATOM     27  N1  <0> d   1      -0.403   1.084   0.993  0.00  0.00     0.087 N 
ATOM     28  C1  <0> d   1      -0.629   2.525   1.170  0.00  0.00     0.310 C 
ATOM     29  C5  <0> d   1       0.284   0.512   2.160  0.00  0.00     0.302 C 
ATOM     30  C4  <0> d   1       0.572  -0.969   1.903  0.00  0.00     0.303 C 
ENDBRANCH  23  24
ENDBRANCH   1  23
BRANCH   2  31
ATOM     31  O5  <0> d   1       2.261  -3.273   2.150  0.00  0.00    -0.360 OA
ATOM     32  H23 <0> d   1       2.470  -2.337   2.272  0.00  0.00     0.217 HD
ENDBRANCH   2  31
TORSDOF 4
