REMARK  5 active torsions:
REMARK  status: ('A' for Active; 'I' for Inactive)
REMARK    1  A    between atoms: N2_5  and  C6_8 
REMARK    2  A    between atoms: C6_8  and  C7_9 
REMARK    3  A    between atoms: C8_10  and  O4_29 
REMARK    4  A    between atoms: C14_17  and  C15_18 
REMARK    5  A    between atoms: C20_23  and  O2_24 
ROOT
ATOM      1  C7  <0> d   1       2.411  -3.607   1.413  0.00  0.00     0.038 A 
ATOM      2  C8  <0> d   1       3.780  -3.671   1.209  0.00  0.00     0.076 A 
ATOM      3  C9  <0> d   1       4.612  -4.256   2.160  0.00  0.00     0.038 A 
ATOM      4  C10 <0> d   1       4.083  -4.775   3.308  0.00  0.00     0.021 A 
ATOM      5  C11 <0> d   1       2.706  -4.718   3.527  0.00  0.00     0.051 A 
ATOM      6  C12 <0> d   1       1.858  -4.125   2.578  0.00  0.00     0.101 A 
ATOM      7  O1  <0> d   1       0.580  -4.182   3.011  0.00  0.00    -0.305 OA
ATOM      8  C13 <0> d   1       0.484  -4.781   4.221  0.00  0.00     0.128 A 
ATOM      9  C14 <0> d   1      -0.658  -4.992   4.924  0.00  0.00     0.055 C 
ATOM     10  C22 <0> d   1       1.841  -5.173   4.630  0.00  0.00     0.218 A 
ATOM     11  O3  <0> d   1       2.176  -5.737   5.658  0.00  0.00    -0.284 OA
ENDROOT
BRANCH   9  12
ATOM     12  C15 <0> d   1      -1.933  -4.464   4.427  0.00  0.00     0.001 A 
ATOM     13  C20 <0> d   1      -3.038  -4.356   5.288  0.00  0.00     0.078 A 
ATOM     14  C19 <0> d   1      -4.236  -3.851   4.809  0.00  0.00     0.039 A 
ATOM     15  C18 <0> d   1      -4.346  -3.465   3.486  0.00  0.00     0.022 A 
ATOM     16  C17 <0> d   1      -3.261  -3.575   2.630  0.00  0.00     0.011 A 
ATOM     17  C16 <0> d   1      -2.059  -4.070   3.089  0.00  0.00     0.033 A 
ATOM     18 Br1  <0> d   1      -3.431  -3.042   0.823  0.00  0.00    -0.051 Br
BRANCH  13  19
ATOM     19  O2  <0> d   1      -2.931  -4.740   6.586  0.00  0.00    -0.355 OA
ATOM     20  C21 <0> d   1      -4.096  -4.601   7.402  0.00  0.00     0.210 C 
ENDBRANCH  13  19
ENDBRANCH   9  12
BRANCH   1  21
ATOM     21  C6  <0> d   1       1.523  -2.970   0.376  0.00  0.00     0.317 C 
BRANCH  21  22
ATOM     22  N2  <0> d   1       1.391  -1.534   0.659  0.00  0.00     0.096 N 
ATOM     23  C3  <0> d   1       0.733  -0.836  -0.454  0.00  0.00     0.303 C 
ATOM     24  C2  <0> d   1       0.685   0.664  -0.155  0.00  0.00     0.302 C 
ATOM     25  N1  <0> d   1      -0.038   0.887   1.104  0.00  0.00     0.087 N 
ATOM     26  C1  <0> d   1      -0.171   2.323   1.388  0.00  0.00     0.310 C 
ATOM     27  C5  <0> d   1       0.620   0.189   2.218  0.00  0.00     0.302 C 
ATOM     28  C4  <0> d   1       0.667  -1.311   1.919  0.00  0.00     0.303 C 
ENDBRANCH  21  22
ENDBRANCH   1  21
BRANCH   2  29
ATOM     29  O4  <0> d   1       4.315  -3.159   0.071  0.00  0.00    -0.360 OA
ATOM     30  H23 <0> d   1       4.566  -2.227   0.140  0.00  0.00     0.217 HD
ENDBRANCH   2  29
TORSDOF 5
