REMARK  5 active torsions:
REMARK  status: ('A' for Active; 'I' for Inactive)
REMARK    1  A    between atoms: C5_6  and  C6_7 
REMARK    2  A    between atoms: C6_7  and  C7_8 
REMARK    3  A    between atoms: C7_8  and  N2_9 
REMARK    4  A    between atoms: N3_12  and  C12_15 
REMARK    5  A    between atoms: C12_15  and  C13_16 
ROOT
ATOM      1  C12 <0> d   1      -6.935  -3.132  -2.130  0.00  0.00     0.312 C 
ENDROOT
BRANCH   1   2
ATOM      2  N3  <0> d   1      -5.684  -2.363  -2.138  0.00  0.00     0.096 N 
ATOM      3  C9  <0> d   1      -5.346  -1.892  -0.788  0.00  0.00     0.303 C 
ATOM      4  C8  <0> d   1      -4.083  -1.030  -0.852  0.00  0.00     0.302 C 
ATOM      5  N2  <0> d   1      -2.982  -1.821  -1.421  0.00  0.00     0.092 N 
ATOM      6  C11 <0> d   1      -3.320  -2.293  -2.771  0.00  0.00     0.302 C 
ATOM      7  C10 <0> d   1      -4.583  -3.154  -2.707  0.00  0.00     0.303 C 
BRANCH   5   8
ATOM      8  C7  <0> d   1      -1.731  -1.052  -1.429  0.00  0.00     0.277 C 
BRANCH   8   9
ATOM      9  C6  <0> d   1      -1.282  -0.793   0.011  0.00  0.00     0.069 C 
BRANCH   9  10
ATOM     10  C5  <0> d   1       0.002  -0.004   0.002  0.00  0.00    -0.054 A 
ATOM     11  C1  <0> d   1      -0.017   1.382   0.010  0.00  0.00     0.026 A 
ATOM     12  C2  <0> d   1       1.181   2.072   0.002  0.00  0.00     0.116 A 
ATOM     13  N1  <0> d   1       2.331   1.427  -0.013  0.00  0.00    -0.273 NA
ATOM     14  C3  <0> d   1       2.387   0.109  -0.021  0.00  0.00     0.116 A 
ATOM     15  C4  <0> d   1       1.230  -0.647  -0.013  0.00  0.00     0.026 A 
ENDBRANCH   9  10
ENDBRANCH   8   9
ENDBRANCH   5   8
ENDBRANCH   1   2
BRANCH   1  16
ATOM     16  C13 <0> d   1      -7.377  -3.388  -3.548  0.00  0.00    -0.011 A 
ATOM     17  C17 <0> d   1      -8.166  -2.393  -4.281  0.00  0.00     0.007 A 
ATOM     18  C16 <0> d   1      -8.553  -2.671  -5.604  0.00  0.00     0.090 A 
ATOM     19  C18 <0> d   1      -8.531  -1.182  -3.689  0.00  0.00     0.022 A 
ATOM     20  O2  <0> d   1      -8.204  -3.844  -6.174  0.00  0.00    -0.275 OA
ATOM     21  C21 <0> d   1      -9.297  -1.733  -6.306  0.00  0.00     0.046 A 
ATOM     22  C15 <0> d   1      -7.487  -4.761  -5.507  0.00  0.00     0.288 A 
ATOM     23  C14 <0> d   1      -7.061  -4.546  -4.179  0.00  0.00     0.092 A 
ATOM     24  O1  <0> d   1      -7.196  -5.805  -6.062  0.00  0.00    -0.260 OA
ATOM     25  C20 <0> d   1      -9.661  -0.542  -5.707  0.00  0.00    -0.049 A 
ATOM     26  C19 <0> d   1      -9.274  -0.264  -4.403  0.00  0.00    -0.051 A 
ATOM     27  C22 <0> d   1     -10.461   0.621  -6.257  0.00  0.00     0.039 C 
ATOM     28  C24 <0> d   1      -9.789   1.100  -3.997  0.00  0.00     0.039 C 
ATOM     29  C23 <0> d   1     -10.894   1.436  -5.021  0.00  0.00     0.009 C 
ENDBRANCH   1  16
TORSDOF 5
