REMARK  10 active torsions:
REMARK  status: ('A' for Active; 'I' for Inactive)
REMARK    1  A    between atoms: O1_2  and  C2_3 
REMARK    2  A    between atoms: C4_5  and  C10_13 
REMARK    3  A    between atoms: C6_7  and  O3_11 
REMARK    4  A    between atoms: C7_8  and  O2_9 
REMARK    5  A    between atoms: C16_20  and  O7_34 
REMARK    6  A    between atoms: C17_21  and  C19_24 
REMARK    7  A    between atoms: C19_24  and  N1_25 
REMARK    8  A    between atoms: N2_28  and  C24_31 
REMARK    9  A    between atoms: C24_31  and  C25_32 
REMARK   10  A    between atoms: C25_32  and  O6_33 
ROOT
ATOM      1  C10 <0> d   1      -4.851   0.226   0.038  0.00  0.00     0.053 C 
ATOM      2  C11 <0> d   1      -6.050  -0.406  -0.056  0.00  0.00     0.127 A 
ATOM      3  C12 <0> d   1      -7.365   0.240  -0.168  0.00  0.00     0.218 A 
ATOM      4  O4  <0> d   1      -7.611   1.433  -0.196  0.00  0.00    -0.284 OA
ATOM      5  C13 <0> d   1      -8.322  -0.880  -0.240  0.00  0.00     0.051 A 
ATOM      6  C14 <0> d   1      -9.711  -0.942  -0.353  0.00  0.00     0.021 A 
ATOM      7  C15 <0> d   1     -10.337  -2.156  -0.396  0.00  0.00     0.038 A 
ATOM      8  C16 <0> d   1      -9.591  -3.330  -0.328  0.00  0.00     0.076 A 
ATOM      9  C17 <0> d   1      -8.211  -3.283  -0.215  0.00  0.00     0.038 A 
ATOM     10  C18 <0> d   1      -7.559  -2.057  -0.170  0.00  0.00     0.101 A 
ATOM     11  O5  <0> d   1      -6.249  -1.745  -0.070  0.00  0.00    -0.305 OA
ENDROOT
BRANCH   1  12
ATOM     12  C4  <0> d   1      -3.632  -0.549   0.299  0.00  0.00    -0.028 A 
ATOM     13  C3  <0> d   1      -2.380   0.077   0.256  0.00  0.00     0.051 A 
ATOM     14  C2  <0> d   1      -1.235  -0.655   0.503  0.00  0.00     0.105 A 
ATOM     15  C7  <0> d   1      -1.324  -2.015   0.788  0.00  0.00     0.135 A 
ATOM     16  C6  <0> d   1      -2.567  -2.641   0.838  0.00  0.00     0.105 A 
ATOM     17  C5  <0> d   1      -3.717  -1.916   0.592  0.00  0.00     0.051 A 
BRANCH  14  18
ATOM     18  O1  <0> d   1      -0.018  -0.048   0.461  0.00  0.00    -0.353 OA
ATOM     19  C1  <0> d   1      -0.001   1.349   0.163  0.00  0.00     0.210 C 
ENDBRANCH  14  18
BRANCH  15  20
ATOM     20  O2  <0> d   1      -0.194  -2.734   1.024  0.00  0.00    -0.351 OA
ATOM     21  C8  <0> d   1       0.255  -2.810   2.379  0.00  0.00     0.210 C 
ENDBRANCH  15  20
BRANCH  16  22
ATOM     22  O3  <0> d   1      -2.649  -3.968   1.122  0.00  0.00    -0.353 OA
ATOM     23  C9  <0> d   1      -3.956  -4.546   1.150  0.00  0.00     0.210 C 
ENDBRANCH  16  22
ENDBRANCH   1  12
BRANCH   9  24
ATOM     24  C19 <0> d   1      -7.418  -4.562  -0.141  0.00  0.00     0.317 C 
BRANCH  24  25
ATOM     25  N1  <0> d   1      -7.046  -4.987  -1.497  0.00  0.00     0.096 N 
ATOM     26  C23 <0> d   1      -6.077  -6.091  -1.456  0.00  0.00     0.303 C 
ATOM     27  C22 <0> d   1      -5.657  -6.451  -2.883  0.00  0.00     0.302 C 
ATOM     28  N2  <0> d   1      -6.845  -6.826  -3.661  0.00  0.00     0.093 N 
ATOM     29  C21 <0> d   1      -7.814  -5.721  -3.702  0.00  0.00     0.302 C 
ATOM     30  C20 <0> d   1      -8.235  -5.362  -2.275  0.00  0.00     0.303 C 
BRANCH  28  31
ATOM     31  C24 <0> d   1      -6.474  -7.251  -5.017  0.00  0.00     0.298 C 
BRANCH  31  32
ATOM     32  C25 <0> d   1      -5.668  -8.549  -4.942  0.00  0.00     0.194 C 
BRANCH  32  33
ATOM     33  O6  <0> d   1      -6.497  -9.595  -4.431  0.00  0.00    -0.399 OA
ATOM     34  H29 <0> d   1      -6.050 -10.450  -4.356  0.00  0.00     0.209 HD
ENDBRANCH  32  33
ENDBRANCH  31  32
ENDBRANCH  28  31
ENDBRANCH  24  25
ENDBRANCH   9  24
BRANCH   8  35
ATOM     35  O7  <0> d   1     -10.222  -4.531  -0.372  0.00  0.00    -0.360 OA
ATOM     36  H30 <0> d   1     -10.333  -4.885  -1.265  0.00  0.00     0.217 HD
ENDBRANCH   8  35
TORSDOF 10
