REMARK  6 active torsions:
REMARK  status: ('A' for Active; 'I' for Inactive)
REMARK    1  A    between atoms: C2_2  and  N1_3 
REMARK    2  A    between atoms: C4_5  and  C12_14 
REMARK    3  A    between atoms: C9_10  and  O1_12 
REMARK    4  A    between atoms: C18_21  and  O4_31 
REMARK    5  A    between atoms: C19_22  and  C21_25 
REMARK    6  A    between atoms: C21_25  and  N2_26 
ROOT
ATOM      1  C12 <0> d   1      -4.342  -1.358  -1.675  0.00  0.00     0.055 C 
ATOM      2  C13 <0> d   1      -3.103  -1.407  -1.108  0.00  0.00     0.128 A 
ATOM      3  C14 <0> d   1      -2.430  -2.584  -0.687  0.00  0.00     0.218 A 
ATOM      4  O2  <0> d   1      -2.832  -3.733  -0.758  0.00  0.00    -0.284 OA
ATOM      5  C15 <0> d   1      -1.141  -2.118  -0.147  0.00  0.00     0.051 A 
ATOM      6  C16 <0> d   1      -0.043  -2.769   0.416  0.00  0.00     0.021 A 
ATOM      7  C17 <0> d   1       1.036  -2.045   0.836  0.00  0.00     0.038 A 
ATOM      8  C18 <0> d   1       1.047  -0.659   0.698  0.00  0.00     0.076 A 
ATOM      9  C19 <0> d   1      -0.039   0.002   0.147  0.00  0.00     0.036 A 
ATOM     10  C20 <0> d   1      -1.143  -0.720  -0.284  0.00  0.00     0.101 A 
ATOM     11  O3  <0> d   1      -2.309  -0.341  -0.851  0.00  0.00    -0.305 OA
ENDROOT
BRANCH   1  12
ATOM     12  C4  <0> d   1      -4.918  -0.072  -2.062  0.00  0.00    -0.005 A 
ATOM     13  C3  <0> d   1      -4.338   1.170  -1.921  0.00  0.00     0.103 A 
ATOM     14  N1  <0> d   1      -5.180   2.120  -2.397  0.00  0.00    -0.356 N 
ATOM     15  C6  <0> d   1      -6.343   1.543  -2.869  0.00  0.00     0.045 A 
ATOM     16  C5  <0> d   1      -6.235   0.155  -2.689  0.00  0.00     0.005 A 
ATOM     17  C7  <0> d   1      -7.495   2.069  -3.444  0.00  0.00     0.033 A 
ATOM     18  C10 <0> d   1      -7.277  -0.684  -3.074  0.00  0.00     0.051 A 
ATOM     19  C9  <0> d   1      -8.415  -0.144  -3.644  0.00  0.00     0.069 A 
ATOM     20  C8  <0> d   1      -8.520   1.231  -3.826  0.00  0.00     0.039 A 
BRANCH  14  21
ATOM     21  C2  <0> d   1      -4.896   3.557  -2.410  0.00  0.00     0.124 C 
ATOM     22  C1  <0> d   1      -5.500   4.207  -1.164  0.00  0.00     0.027 C 
ENDBRANCH  14  21
BRANCH  19  23
ATOM     23  O1  <0> d   1      -9.434  -0.959  -4.026  0.00  0.00    -0.356 OA
ATOM     24  C11 <0> d   1     -10.581  -0.334  -4.608  0.00  0.00     0.210 C 
ENDBRANCH  19  23
ENDBRANCH   1  12
BRANCH   9  25
ATOM     25  C21 <0> d   1      -0.018   1.503   0.010  0.00  0.00     0.279 C 
BRANCH  25  26
ATOM     26  N2  <0> d   1       0.696   1.872  -1.220  0.00  0.00    -0.067 N 
ATOM     27  C25 <0> d   1       0.650   3.334  -1.440  0.00  0.00     0.235 C 
ATOM     28  C24 <0> d   1       0.585   3.559  -2.962  0.00  0.00     0.029 C 
ATOM     29  C23 <0> d   1       0.565   2.142  -3.580  0.00  0.00     0.029 C 
ATOM     30  C22 <0> d   1       0.052   1.262  -2.412  0.00  0.00     0.235 C 
ATOM     31  H26 <0> d   1       1.728   1.517  -1.085  0.00  0.00     0.280 HD
ENDBRANCH  25  26
ENDBRANCH   9  25
BRANCH   8  32
ATOM     32  O4  <0> d   1       2.127   0.050   1.114  0.00  0.00    -0.360 OA
ATOM     33  H27 <0> d   1       2.140   1.145   1.007  0.00  0.00     0.217 HD
ENDBRANCH   8  32
TORSDOF 6
