REMARK  5 active torsions:
REMARK  status: ('A' for Active; 'I' for Inactive)
REMARK    1  A    between atoms: O1_2  and  C2_3 
REMARK    2  A    between atoms: C5_6  and  C9_11 
REMARK    3  A    between atoms: C7_8  and  O2_9 
REMARK    4  A    between atoms: C16_19  and  C18_22 
REMARK    5  A    between atoms: C18_22  and  N1_23 
ROOT
ATOM      1  C9  <0> d   1       0.186   6.045  -0.437  0.00  0.00     0.053 C 
ATOM      2  C10 <0> d   1      -0.011   7.383  -0.322  0.00  0.00     0.127 A 
ATOM      3  C11 <0> d   1       0.399   8.408  -1.293  0.00  0.00     0.218 A 
ATOM      4  O3  <0> d   1       0.977   8.242  -2.353  0.00  0.00    -0.284 OA
ATOM      5  C12 <0> d   1      -0.048   9.680  -0.698  0.00  0.00     0.051 A 
ATOM      6  C13 <0> d   1       0.035  11.010  -1.115  0.00  0.00     0.021 A 
ATOM      7  C14 <0> d   1      -0.477  12.003  -0.329  0.00  0.00     0.041 A 
ATOM      8  C15 <0> d   1      -1.081  11.691   0.887  0.00  0.00     0.118 A 
ATOM      9  C16 <0> d   1      -1.169  10.376   1.313  0.00  0.00     0.041 A 
ATOM     10  C17 <0> d   1      -0.654   9.354   0.526  0.00  0.00     0.101 A 
ATOM     11  O4  <0> d   1      -0.614   8.017   0.711  0.00  0.00    -0.305 OA
ATOM     12  O6  <0> d   1      -1.587  12.685   1.661  0.00  0.00    -0.191 OA
ENDROOT
BRANCH   1  13
ATOM     13  C5  <0> d   1      -0.378   5.131   0.564  0.00  0.00    -0.031 A 
ATOM     14  C4  <0> d   1      -1.008   5.642   1.706  0.00  0.00     0.014 A 
ATOM     15  C3  <0> d   1      -1.537   4.783   2.643  0.00  0.00     0.040 A 
ATOM     16  C2  <0> d   1      -1.451   3.409   2.458  0.00  0.00     0.101 A 
ATOM     17  C7  <0> d   1      -0.819   2.892   1.327  0.00  0.00     0.102 A 
ATOM     18  C6  <0> d   1      -0.286   3.745   0.382  0.00  0.00     0.051 A 
BRANCH  16  19
ATOM     19  O1  <0> d   1      -1.979   2.567   3.383  0.00  0.00    -0.353 OA
ATOM     20  C1  <0> d   1      -2.612   3.163   4.517  0.00  0.00     0.210 C 
ENDBRANCH  16  19
BRANCH  17  21
ATOM     21  O2  <0> d   1      -0.732   1.546   1.153  0.00  0.00    -0.353 OA
ATOM     22  C8  <0> d   1      -0.077   1.085  -0.031  0.00  0.00     0.210 C 
ENDBRANCH  17  21
ENDBRANCH   1  13
BRANCH   9  23
ATOM     23  C18 <0> d   1      -1.825  10.054   2.632  0.00  0.00     0.317 C 
BRANCH  23  24
ATOM     24  N1  <0> d   1      -0.815  10.075   3.698  0.00  0.00     0.097 N 
ATOM     25  C22 <0> d   1      -1.447  10.001   5.024  0.00  0.00     0.299 C 
ATOM     26  C21 <0> d   1      -0.365  10.085   6.104  0.00  0.00     0.198 C 
ATOM     27  O5  <0> d   1       0.588   9.039   5.900  0.00  0.00    -0.388 OA
ATOM     28  C20 <0> d   1       1.224   9.081   4.619  0.00  0.00     0.198 C 
ATOM     29  C19 <0> d   1       0.158   8.986   3.524  0.00  0.00     0.299 C 
ENDBRANCH  23  24
ENDBRANCH   9  23
TORSDOF 5
