REMARK  5 active torsions:
REMARK  status: ('A' for Active; 'I' for Inactive)
REMARK    1  A    between atoms: N2_5  and  C6_8 
REMARK    2  A    between atoms: C6_8  and  C7_9 
REMARK    3  A    between atoms: C8_10  and  O4_28 
REMARK    4  A    between atoms: C14_17  and  C16_20 
REMARK    5  A    between atoms: C21_25  and  O3_26 
ROOT
ATOM      1  C7  <0> d   1      -0.063  -4.571   2.333  0.00  0.00     0.038 A 
ATOM      2  C8  <0> d   1       1.293  -4.779   2.526  0.00  0.00     0.076 A 
ATOM      3  C9  <0> d   1       1.773  -5.244   3.749  0.00  0.00     0.038 A 
ATOM      4  C10 <0> d   1       0.909  -5.498   4.777  0.00  0.00     0.021 A 
ATOM      5  C11 <0> d   1      -0.457  -5.289   4.598  0.00  0.00     0.050 A 
ATOM      6  C12 <0> d   1      -0.954  -4.821   3.368  0.00  0.00     0.100 A 
ATOM      7  O1  <0> d   1      -2.276  -4.630   3.196  0.00  0.00    -0.320 OA
ATOM      8  C13 <0> d   1      -3.119  -4.574   4.230  0.00  0.00     0.159 C 
ATOM      9  C14 <0> d   1      -2.783  -5.000   5.476  0.00  0.00     0.050 C 
ATOM     10  C15 <0> d   1      -1.423  -5.542   5.684  0.00  0.00     0.198 C 
ATOM     11  O2  <0> d   1      -1.115  -6.148   6.696  0.00  0.00    -0.286 OA
ENDROOT
BRANCH   1  12
ATOM     12  C6  <0> d   1      -0.568  -4.068   1.006  0.00  0.00     0.317 C 
BRANCH  12  13
ATOM     13  N2  <0> d   1      -0.588  -2.599   1.014  0.00  0.00     0.096 N 
ATOM     14  C3  <0> d   1      -1.292  -2.075  -0.165  0.00  0.00     0.303 C 
ATOM     15  C2  <0> d   1      -1.360  -0.549  -0.079  0.00  0.00     0.302 C 
ATOM     16  N1  <0> d   1       0.002  -0.004   0.002  0.00  0.00     0.087 N 
ATOM     17  C1  <0> d   1      -0.018   1.465   0.010  0.00  0.00     0.310 C 
ATOM     18  C5  <0> d   1       0.706  -0.528   1.181  0.00  0.00     0.302 C 
ATOM     19  C4  <0> d   1       0.774  -2.054   1.095  0.00  0.00     0.303 C 
ENDBRANCH  12  13
ENDBRANCH   1  12
BRANCH   2  20
ATOM     20  O4  <0> d   1       2.162  -4.529   1.514  0.00  0.00    -0.360 OA
ATOM     21  H24 <0> d   1       2.502  -3.624   1.503  0.00  0.00     0.217 HD
ENDBRANCH   2  20
BRANCH   9  22
ATOM     22  C16 <0> d   1      -3.757  -4.934   6.593  0.00  0.00     0.013 A 
ATOM     23  C21 <0> d   1      -4.054  -3.707   7.193  0.00  0.00     0.079 A 
ATOM     24  C20 <0> d   1      -4.970  -3.653   8.231  0.00  0.00     0.037 A 
ATOM     25  C19 <0> d   1      -5.578  -4.811   8.679  0.00  0.00     0.003 A 
ATOM     26  C18 <0> d   1      -5.281  -6.027   8.091  0.00  0.00     0.001 A 
ATOM     27  C17 <0> d   1      -4.375  -6.095   7.051  0.00  0.00     0.015 A 
BRANCH  23  28
ATOM     28  O3  <0> d   1      -3.452  -2.570   6.756  0.00  0.00    -0.355 OA
ATOM     29  C22 <0> d   1      -3.805  -1.353   7.417  0.00  0.00     0.210 C 
ENDBRANCH  23  28
ENDBRANCH   9  22
TORSDOF 5
