REMARK  6 active torsions:
REMARK  status: ('A' for Active; 'I' for Inactive)
REMARK    1  A    between atoms: C4_4  and  C7_7 
REMARK    2  A    between atoms: C10_10  and  C13_13 
REMARK    3  A    between atoms: C19_20  and  O3_37 
REMARK    4  A    between atoms: C20_21  and  C22_24 
REMARK    5  A    between atoms: C22_24  and  N1_25 
REMARK    6  A    between atoms: N2_28  and  C27_31 
ROOT
ATOM      1  C13 <0> d   1       7.347  -2.759  -0.149  0.00  0.00     0.053 C 
ATOM      2  C14 <0> d   1       7.381  -4.112  -0.049  0.00  0.00     0.127 A 
ATOM      3  C15 <0> d   1       6.218  -5.013  -0.041  0.00  0.00     0.218 A 
ATOM      4  O1  <0> d   1       5.040  -4.710  -0.120  0.00  0.00    -0.284 OA
ATOM      5  C16 <0> d   1       6.796  -6.363   0.085  0.00  0.00     0.051 A 
ATOM      6  C17 <0> d   1       6.236  -7.639   0.151  0.00  0.00     0.021 A 
ATOM      7  C18 <0> d   1       7.046  -8.733   0.271  0.00  0.00     0.038 A 
ATOM      8  C19 <0> d   1       8.428  -8.576   0.327  0.00  0.00     0.076 A 
ATOM      9  C20 <0> d   1       8.998  -7.315   0.263  0.00  0.00     0.038 A 
ATOM     10  C21 <0> d   1       8.189  -6.192   0.141  0.00  0.00     0.101 A 
ATOM     11  O2  <0> d   1       8.492  -4.879   0.055  0.00  0.00    -0.305 OA
ENDROOT
BRANCH   1  12
ATOM     12  C10 <0> d   1       6.064  -2.050  -0.077  0.00  0.00    -0.033 A 
ATOM     13  C9  <0> d   1       5.063  -2.496   0.796  0.00  0.00     0.012 A 
ATOM     14  C8  <0> d   1       3.870  -1.834   0.862  0.00  0.00     0.013 A 
ATOM     15  C7  <0> d   1       3.648  -0.713   0.060  0.00  0.00    -0.026 A 
ATOM     16  C12 <0> d   1       4.641  -0.269  -0.815  0.00  0.00     0.013 A 
ATOM     17  C11 <0> d   1       5.838  -0.924  -0.880  0.00  0.00     0.012 A 
BRANCH  15  18
ATOM     18  C4  <0> d   1       2.353   0.004   0.134  0.00  0.00    -0.026 A 
ATOM     19  C3  <0> d   1       1.358  -0.436   1.007  0.00  0.00     0.012 A 
ATOM     20  C2  <0> d   1       0.154   0.236   1.071  0.00  0.00     0.001 A 
ATOM     21  C1  <0> d   1      -0.066   1.344   0.272  0.00  0.00     0.000 A 
ATOM     22  C6  <0> d   1       0.917   1.785  -0.595  0.00  0.00     0.001 A 
ATOM     23  C5  <0> d   1       2.124   1.121  -0.669  0.00  0.00     0.012 A 
ENDBRANCH  15  18
ENDBRANCH   1  12
BRANCH   9  24
ATOM     24  C22 <0> d   1      10.496  -7.161   0.326  0.00  0.00     0.317 C 
BRANCH  24  25
ATOM     25  N1  <0> d   1      11.051  -7.213  -1.033  0.00  0.00     0.096 N 
ATOM     26  C26 <0> d   1      12.517  -7.304  -1.000  0.00  0.00     0.292 C 
ATOM     27  C25 <0> d   1      13.043  -7.537  -2.420  0.00  0.00     0.154 C 
ATOM     28  N2  <0> d   1      12.505  -6.485  -3.296  0.00  0.00    -0.362 N 
ATOM     29  C24 <0> d   1      11.055  -6.241  -3.281  0.00  0.00     0.154 C 
ATOM     30  C23 <0> d   1      10.607  -6.059  -1.827  0.00  0.00     0.292 C 
BRANCH  28  31
ATOM     31  C27 <0> d   1      13.345  -5.741  -4.116  0.00  0.00     0.125 A 
ATOM     32  N3  <0> d   1      14.608  -6.110  -4.270  0.00  0.00    -0.244 NA
ATOM     33  C31 <0> d   1      15.437  -5.435  -5.043  0.00  0.00     0.119 A 
ATOM     34  C30 <0> d   1      15.016  -4.304  -5.715  0.00  0.00     0.019 A 
ATOM     35  C29 <0> d   1      13.701  -3.880  -5.575  0.00  0.00     0.005 A 
ATOM     36  C28 <0> d   1      12.854  -4.611  -4.763  0.00  0.00     0.050 A 
ENDBRANCH  28  31
ENDBRANCH  24  25
ENDBRANCH   9  24
BRANCH   8  37
ATOM     37  O3  <0> d   1       9.224  -9.669   0.447  0.00  0.00    -0.360 OA
ATOM     38  H27 <0> d   1       9.498 -10.051  -0.399  0.00  0.00     0.217 HD
ENDBRANCH   8  37
TORSDOF 6
