REMARK  5 active torsions:
REMARK  status: ('A' for Active; 'I' for Inactive)
REMARK    1  A    between atoms: C2_2  and  O1_3 
REMARK    2  A    between atoms: O1_3  and  C3_4 
REMARK    3  A    between atoms: C6_7  and  C9_11 
REMARK    4  A    between atoms: C10_12  and  C13_18 
REMARK    5  A    between atoms: C18_23  and  O3_24 
ROOT
ATOM      1  C9  <0> d   1       1.098  -6.024  -1.837  0.00  0.00     0.103 A 
ATOM      2  C10 <0> d   1       1.639  -6.693  -2.965  0.00  0.00     0.032 A 
ATOM      3  C11 <0> d   1       1.564  -8.031  -2.722  0.00  0.00     0.037 A 
ATOM      4  N1  <0> d   1       1.005  -8.200  -1.505  0.00  0.00    -0.281 N 
ATOM      5  N2  <0> d   1       0.727  -6.938  -0.967  0.00  0.00    -0.173 NA
ATOM      6  H1  <0> d   1       0.830  -9.052  -1.075  0.00  0.00     0.189 HD
ATOM      7  C12 <0> d   1       2.023  -9.128  -3.648  0.00  0.00     0.070 C 
ENDROOT
BRANCH   1   8
ATOM      8  C6  <0> d   1       0.979  -4.556  -1.667  0.00  0.00     0.032 A 
ATOM      9  C5  <0> d   1       2.065  -3.730  -1.948  0.00  0.00     0.019 A 
ATOM     10  C4  <0> d   1       1.951  -2.365  -1.788  0.00  0.00     0.038 A 
ATOM     11  C3  <0> d   1       0.756  -1.810  -1.349  0.00  0.00     0.071 A 
ATOM     12  C8  <0> d   1      -0.328  -2.626  -1.062  0.00  0.00     0.077 A 
ATOM     13  C7  <0> d   1      -0.224  -3.998  -1.223  0.00  0.00     0.122 A 
ATOM     14  O2  <0> d   1      -1.287  -4.798  -0.948  0.00  0.00    -0.191 OA
BRANCH  11  15
ATOM     15  O1  <0> d   1       0.650  -0.464  -1.194  0.00  0.00    -0.351 OA
BRANCH  15  16
ATOM     16  C2  <0> d   1       1.804   0.318  -1.507  0.00  0.00     0.171 C 
ATOM     17  C1  <0> d   1       1.496   1.798  -1.273  0.00  0.00     0.034 C 
ENDBRANCH  15  16
ENDBRANCH  11  15
ENDBRANCH   1   8
BRANCH   2  18
ATOM     18  C13 <0> d   1       2.186  -6.052  -4.186  0.00  0.00     0.012 A 
ATOM     19  C18 <0> d   1       1.330  -5.680  -5.226  0.00  0.00     0.079 A 
ATOM     20  C17 <0> d   1       1.848  -5.077  -6.361  0.00  0.00     0.037 A 
ATOM     21  C16 <0> d   1       3.208  -4.854  -6.467  0.00  0.00     0.003 A 
ATOM     22  C15 <0> d   1       4.058  -5.226  -5.441  0.00  0.00     0.001 A 
ATOM     23  C14 <0> d   1       3.554  -5.823  -4.303  0.00  0.00     0.015 A 
BRANCH  19  24
ATOM     24  O3  <0> d   1      -0.007  -5.904  -5.124  0.00  0.00    -0.355 OA
ATOM     25  C19 <0> d   1      -0.819  -5.497  -6.226  0.00  0.00     0.210 C 
ENDBRANCH  19  24
ENDBRANCH   2  18
TORSDOF 5
