REMARK  5 active torsions:
REMARK  status: ('A' for Active; 'I' for Inactive)
REMARK    1  A    between atoms: O1_2  and  C2_3 
REMARK    2  A    between atoms: C7_8  and  C8_9 
REMARK    3  A    between atoms: C9_10  and  C12_19 
REMARK    4  A    between atoms: C10_14  and  C11_15 
REMARK    5  A    between atoms: C15_22  and  O3_26 
ROOT
ATOM      1  C8  <0> d   1      -0.006  -2.831  -0.013  0.00  0.00     0.041 A 
ATOM      2  C9  <0> d   1       0.691  -3.275  -1.165  0.00  0.00     0.103 A 
ATOM      3  N1  <0> d   1       1.748  -3.946  -0.763  0.00  0.00    -0.173 NA
ATOM      4  H1  <0> d   1       2.430  -4.378   1.196  0.00  0.00     0.189 HD
ATOM      5  N2  <0> d   1       1.761  -3.954   0.637  0.00  0.00    -0.272 N 
ATOM      6  C10 <0> d   1       0.688  -3.264   1.077  0.00  0.00     0.147 A 
ENDROOT
BRANCH   2   7
ATOM      7  C12 <0> d   1       0.297  -3.027  -2.573  0.00  0.00     0.032 A 
ATOM      8  C17 <0> d   1       1.081  -3.526  -3.619  0.00  0.00     0.122 A 
ATOM      9  C16 <0> d   1       0.705  -3.296  -4.931  0.00  0.00     0.077 A 
ATOM     10  O2  <0> d   1       2.204  -4.240  -3.347  0.00  0.00    -0.191 OA
ATOM     11  C15 <0> d   1      -0.439  -2.562  -5.207  0.00  0.00     0.068 A 
ATOM     12  C14 <0> d   1      -1.214  -2.061  -4.169  0.00  0.00     0.037 A 
ATOM     13  C13 <0> d   1      -0.851  -2.291  -2.858  0.00  0.00     0.019 A 
BRANCH  11  14
ATOM     14  O3  <0> d   1      -0.803  -2.333  -6.495  0.00  0.00    -0.361 OA
ATOM     15  H12 <0> d   1      -0.431  -1.523  -6.871  0.00  0.00     0.217 HD
ENDBRANCH  11  14
ENDBRANCH   2   7
BRANCH   1  16
ATOM     16  C7  <0> d   1      -1.257  -2.034   0.003  0.00  0.00     0.012 A 
ATOM     17  C2  <0> d   1      -1.200  -0.637   0.010  0.00  0.00     0.079 A 
ATOM     18  C3  <0> d   1      -2.374   0.099   0.019  0.00  0.00     0.037 A 
ATOM     19  C4  <0> d   1      -3.596  -0.546   0.027  0.00  0.00     0.003 A 
ATOM     20  C5  <0> d   1      -3.656  -1.929   0.026  0.00  0.00     0.001 A 
ATOM     21  C6  <0> d   1      -2.494  -2.674   0.017  0.00  0.00     0.015 A 
BRANCH  17  22
ATOM     22  O1  <0> d   1       0.002  -0.004   0.002  0.00  0.00    -0.355 OA
ATOM     23  C1  <0> d   1      -0.017   1.425   0.010  0.00  0.00     0.210 C 
ENDBRANCH  17  22
ENDBRANCH   1  16
BRANCH   6  24
ATOM     24  C11 <0> d   1       0.319  -3.021   2.518  0.00  0.00     0.434 C 
ATOM     25  F1  <0> d   1       1.271  -3.620   3.350  0.00  0.00    -0.165 F 
ATOM     26  F2  <0> d   1       0.285  -1.644   2.764  0.00  0.00    -0.165 F 
ATOM     27  F3  <0> d   1      -0.940  -3.572   2.777  0.00  0.00    -0.165 F 
ENDBRANCH   6  24
TORSDOF 5
