REMARK  6 active torsions:
REMARK  status: ('A' for Active; 'I' for Inactive)
REMARK    1  A    between atoms: C3_3  and  O4_21 
REMARK    2  A    between atoms: C9_10  and  C11_13 
REMARK    3  A    between atoms: C14_16  and  O3_19 
REMARK    4  A    between atoms: O4_21  and  C18_22 
REMARK    5  A    between atoms: C18_22  and  C19_23 
REMARK    6  A    between atoms: C19_23  and  N1_24 
ROOT
ATOM      1  C1  <0> d   1      -0.091   1.225   0.078  0.00  0.00     0.054 C 
ATOM      2  C2  <0> d   1       0.009  -0.276  -0.016  0.00  0.00     0.006 A 
ATOM      3  C3  <0> d   1       0.050  -0.892  -1.255  0.00  0.00     0.077 A 
ATOM      4  C4  <0> d   1       0.142  -2.279  -1.356  0.00  0.00     0.038 A 
ATOM      5  C5  <0> d   1       0.198  -3.050  -0.230  0.00  0.00     0.021 A 
ATOM      6  C6  <0> d   1       0.161  -2.442   1.025  0.00  0.00     0.049 A 
ATOM      7  C7  <0> d   1       0.066  -1.044   1.139  0.00  0.00     0.097 A 
ATOM      8  O1  <0> d   1       0.020  -0.462   2.353  0.00  0.00    -0.320 OA
ATOM      9  C8  <0> d   1       0.364  -1.121   3.462  0.00  0.00     0.159 C 
ATOM     10  C9  <0> d   1       0.483  -2.474   3.506  0.00  0.00     0.048 C 
ATOM     11  C10 <0> d   1       0.227  -3.236   2.267  0.00  0.00     0.197 C 
ATOM     12  O2  <0> d   1       0.091  -4.447   2.268  0.00  0.00    -0.286 OA
ENDROOT
BRANCH   3  13
ATOM     13  O4  <0> d   1      -0.002  -0.139  -2.383  0.00  0.00    -0.349 OA
BRANCH  13  14
ATOM     14  C18 <0> d   1       0.044  -0.834  -3.631  0.00  0.00     0.203 C 
BRANCH  14  15
ATOM     15  C19 <0> d   1      -0.025   0.175  -4.779  0.00  0.00     0.261 C 
BRANCH  15  16
ATOM     16  N1  <0> d   1       1.162   1.040  -4.743  0.00  0.00    -0.066 N 
ATOM     17  C23 <0> d   1       2.360   0.238  -5.030  0.00  0.00     0.265 C 
ATOM     18  C22 <0> d   1       3.599   1.135  -4.975  0.00  0.00     0.299 C 
ATOM     19  N2  <0> d   1       3.463   2.215  -5.962  0.00  0.00     0.087 N 
ATOM     20  C21 <0> d   1       2.255   3.011  -5.702  0.00  0.00     0.299 C 
ATOM     21  C24 <0> d   1       4.660   3.066  -5.979  0.00  0.00     0.310 C 
ATOM     22  C20 <0> d   1       1.027   2.099  -5.752  0.00  0.00     0.265 C 
ATOM     23  H29 <0> d   1       1.248   1.456  -3.828  0.00  0.00     0.280 HD
ENDBRANCH  15  16
ENDBRANCH  14  15
ENDBRANCH  13  14
ENDBRANCH   3  13
BRANCH  10  24
ATOM     24  C11 <0> d   1       0.851  -3.166   4.766  0.00  0.00    -0.020 A 
ATOM     25  C16 <0> d   1      -0.011  -3.127   5.861  0.00  0.00     0.015 A 
ATOM     26  C15 <0> d   1       0.331  -3.777   7.028  0.00  0.00     0.037 A 
ATOM     27  C14 <0> d   1       1.537  -4.459   7.118  0.00  0.00     0.068 A 
ATOM     28  C13 <0> d   1       2.400  -4.493   6.031  0.00  0.00     0.037 A 
ATOM     29  C12 <0> d   1       2.061  -3.851   4.858  0.00  0.00     0.015 A 
BRANCH  27  30
ATOM     30  O3  <0> d   1       1.874  -5.093   8.271  0.00  0.00    -0.356 OA
ATOM     31  C17 <0> d   1       0.940  -5.017   9.350  0.00  0.00     0.210 C 
ENDBRANCH  27  30
ENDBRANCH  10  24
TORSDOF 6
