REMARK  7 active torsions:
REMARK  status: ('A' for Active; 'I' for Inactive)
REMARK    1  A    between atoms: C2_2  and  C3_3 
REMARK    2  A    between atoms: C7_8  and  C21_28 
REMARK    3  A    between atoms: C8_9  and  C18_23 
REMARK    4  A    between atoms: C10_12  and  C12_15 
REMARK    5  A    between atoms: C12_15  and  N1_16 
REMARK    6  A    between atoms: C18_23  and  O5_25 
REMARK    7  A    between atoms: O5_25  and  C19_26 
ROOT
ATOM      1  C3  <0> d   1      -0.576   3.544   5.264  0.00  0.00    -0.020 A 
ATOM      2  C4  <0> d   1      -1.676   3.038   5.894  0.00  0.00     0.028 A 
ATOM      3  C5  <0> d   1      -2.271   1.867   5.419  0.00  0.00     0.050 A 
ATOM      4  C6  <0> d   1      -3.459   1.297   6.078  0.00  0.00     0.201 A 
ATOM      5  O1  <0> d   1      -3.960   1.823   7.055  0.00  0.00    -0.286 OA
ATOM      6  C7  <0> d   1      -4.014   0.054   5.495  0.00  0.00     0.091 A 
ATOM      7  C8  <0> d   1      -3.394  -0.486   4.388  0.00  0.00     0.168 A 
ATOM      8  O2  <0> d   1      -2.314   0.079   3.829  0.00  0.00    -0.302 OA
ATOM      9  C9  <0> d   1      -1.743   1.208   4.293  0.00  0.00     0.101 A 
ATOM     10  C10 <0> d   1      -0.624   1.737   3.664  0.00  0.00     0.040 A 
ATOM     11  C11 <0> d   1      -0.042   2.895   4.152  0.00  0.00     0.124 A 
ATOM     12  O3  <0> d   1       1.055   3.406   3.538  0.00  0.00    -0.191 OA
ENDROOT
BRANCH   6  13
ATOM     13  C21 <0> d   1      -5.201  -0.591   6.086  0.00  0.00     0.116 A 
ATOM     14  S1  <0> d   1      -6.090  -0.158   7.575  0.00  0.00    -0.067 SA
ATOM     15  C27 <0> d   1      -7.315  -1.440   7.480  0.00  0.00     0.035 A 
ATOM     16  C22 <0> d   1      -6.948  -2.120   6.293  0.00  0.00     0.075 A 
ATOM     17  C26 <0> d   1      -8.390  -1.820   8.247  0.00  0.00     0.021 A 
ATOM     18  N3  <0> d   1      -5.880  -1.630   5.648  0.00  0.00    -0.239 NA
ATOM     19  C23 <0> d   1      -7.756  -3.226   5.932  0.00  0.00     0.033 A 
ATOM     20  C24 <0> d   1      -8.817  -3.592   6.698  0.00  0.00     0.002 A 
ATOM     21  C25 <0> d   1      -9.152  -2.905   7.858  0.00  0.00     0.002 A 
ENDBRANCH   6  13
BRANCH   7  22
ATOM     22  C18 <0> d   1      -3.939  -1.726   3.797  0.00  0.00     0.318 C 
ATOM     23  O4  <0> d   1      -4.720  -1.664   2.869  0.00  0.00    -0.257 OA
BRANCH  22  24
ATOM     24  O5  <0> d   1      -3.569  -2.925   4.288  0.00  0.00    -0.316 OA
BRANCH  24  25
ATOM     25  C19 <0> d   1      -4.144  -4.101   3.658  0.00  0.00     0.175 C 
ATOM     26  C20 <0> d   1      -3.611  -5.359   4.346  0.00  0.00     0.034 C 
ENDBRANCH  24  25
ENDBRANCH  22  24
ENDBRANCH   7  22
BRANCH   1  27
ATOM     27  C2  <0> d   1       0.067   4.807   5.776  0.00  0.00     0.037 C 
ATOM     28  C1  <0> d   1      -0.480   6.008   5.001  0.00  0.00     0.010 C 
ENDBRANCH   1  27
BRANCH  10  29
ATOM     29  C12 <0> d   1      -0.039   1.049   2.458  0.00  0.00     0.279 C 
BRANCH  29  30
ATOM     30  N1  <0> d   1      -0.669   1.577   1.240  0.00  0.00    -0.064 N 
ATOM     31  C16 <0> d   1      -0.729   3.045   1.272  0.00  0.00     0.265 C 
ATOM     32  C15 <0> d   1      -1.460   3.551   0.027  0.00  0.00     0.299 C 
ATOM     33  N2  <0> d   1      -0.756   3.082  -1.175  0.00  0.00     0.087 N 
ATOM     34  C14 <0> d   1      -0.697   1.614  -1.208  0.00  0.00     0.299 C 
ATOM     35  C17 <0> d   1      -1.385   3.611  -2.393  0.00  0.00     0.310 C 
ATOM     36  C13 <0> d   1       0.035   1.108   0.038  0.00  0.00     0.265 C 
ATOM     37  H29 <0> d   1      -1.700   1.196   1.201  0.00  0.00     0.280 HD
ENDBRANCH  29  30
ENDBRANCH  10  29
TORSDOF 7
