REMARK  5 active torsions:
REMARK  status: ('A' for Active; 'I' for Inactive)
REMARK    1  A    between atoms: C2_2  and  N1_3 
REMARK    2  A    between atoms: N2_6  and  C7_9 
REMARK    3  A    between atoms: C7_9  and  C8_10 
REMARK    4  A    between atoms: C9_11  and  O3_28 
REMARK    5  A    between atoms: C15_18  and  C16_19 
ROOT
ATOM      1  C8  <0> d   1       2.073   6.747  -0.261  0.00  0.00     0.038 A 
ATOM      2  C9  <0> d   1       2.662   7.995  -0.380  0.00  0.00     0.076 A 
ATOM      3  C10 <0> d   1       4.046   8.120  -0.461  0.00  0.00     0.038 A 
ATOM      4  C11 <0> d   1       4.839   7.008  -0.424  0.00  0.00     0.021 A 
ATOM      5  C12 <0> d   1       4.259   5.744  -0.305  0.00  0.00     0.051 A 
ATOM      6  C13 <0> d   1       2.864   5.606  -0.223  0.00  0.00     0.101 A 
ATOM      7  O1  <0> d   1       2.541   4.299  -0.114  0.00  0.00    -0.305 OA
ATOM      8  C14 <0> d   1       3.639   3.507  -0.116  0.00  0.00     0.127 A 
ATOM      9  C15 <0> d   1       3.652   2.154  -0.021  0.00  0.00     0.053 C 
ATOM     10  C23 <0> d   1       4.817   4.382  -0.233  0.00  0.00     0.218 A 
ATOM     11  O2  <0> d   1       5.990   4.053  -0.266  0.00  0.00    -0.284 OA
ENDROOT
BRANCH   1  12
ATOM     12  C7  <0> d   1       0.573   6.627  -0.174  0.00  0.00     0.317 C 
BRANCH  12  13
ATOM     13  N2  <0> d   1       0.158   6.685   1.234  0.00  0.00     0.096 N 
ATOM     14  C4  <0> d   1      -1.302   6.810   1.348  0.00  0.00     0.303 C 
ATOM     15  C3  <0> d   1      -1.685   6.947   2.824  0.00  0.00     0.302 C 
ATOM     16  N1  <0> d   1      -1.200   5.774   3.564  0.00  0.00     0.091 N 
ATOM     17  C6  <0> d   1       0.260   5.649   3.450  0.00  0.00     0.302 C 
ATOM     18  C5  <0> d   1       0.643   5.512   1.975  0.00  0.00     0.303 C 
BRANCH  16  19
ATOM     19  C2  <0> d   1      -1.615   5.832   4.972  0.00  0.00     0.268 C 
ATOM     20  C1  <0> d   1      -0.892   4.739   5.763  0.00  0.00     0.037 C 
ENDBRANCH  16  19
ENDBRANCH  12  13
ENDBRANCH   1  12
BRANCH   2  21
ATOM     21  O3  <0> d   1       1.883   9.106  -0.416  0.00  0.00    -0.360 OA
ATOM     22  H26 <0> d   1       2.346  10.100  -0.510  0.00  0.00     0.217 HD
ENDBRANCH   2  21
BRANCH   9  23
ATOM     23  C16 <0> d   1       2.387   1.405  -0.020  0.00  0.00    -0.033 A 
ATOM     24  C21 <0> d   1       2.397   0.007  -0.051  0.00  0.00     0.018 A 
ATOM     25  C20 <0> d   1       1.206  -0.688  -0.049  0.00  0.00    -0.061 A 
ATOM     26  C19 <0> d   1       0.003  -0.005  -0.018  0.00  0.00     0.007 A 
ATOM     27  C22 <0> d   1       1.215  -2.195  -0.083  0.00  0.00     0.048 C 
ATOM     28  C18 <0> d   1      -0.016   1.379   0.012  0.00  0.00     0.001 A 
ATOM     29  C17 <0> d   1       1.165   2.088   0.011  0.00  0.00     0.011 A 
ENDBRANCH   9  23
TORSDOF 5
