REMARK  8 active torsions:
REMARK  status: ('A' for Active; 'I' for Inactive)
REMARK    1  A    between atoms: C2_2  and  C4_4 
REMARK    2  A    between atoms: C4_4  and  O1_5 
REMARK    3  A    between atoms: O1_5  and  C5_6 
REMARK    4  A    between atoms: C7_8  and  O2_9 
REMARK    5  A    between atoms: C8_10  and  C9_11 
REMARK    6  A    between atoms: C10_12  and  C13_18 
REMARK    7  A    between atoms: C12_15  and  N3_17 
REMARK    8  A    between atoms: C16_21  and  O3_24 
ROOT
ATOM      1  C9  <0> d   1       0.255  -5.526  -5.566  0.00  0.00     0.101 A 
ATOM      2  C10 <0> d   1      -0.091  -5.008  -6.830  0.00  0.00     0.023 A 
ATOM      3  C11 <0> d   1      -0.314  -5.908  -7.872  0.00  0.00     0.151 A 
ATOM      4  N1  <0> d   1      -0.195  -7.205  -7.640  0.00  0.00    -0.075 NA
ATOM      5  C12 <0> d   1       0.132  -7.659  -6.439  0.00  0.00     0.720 A 
ATOM      6  N2  <0> d   1       0.358  -6.845  -5.419  0.00  0.00    -0.062 NA
ENDROOT
BRANCH   1   7
ATOM      7  C8  <0> d   1       0.503  -4.620  -4.423  0.00  0.00     0.028 A 
ATOM      8  C7  <0> d   1      -0.136  -4.844  -3.197  0.00  0.00     0.081 A 
ATOM      9  C6  <0> d   1       0.101  -3.991  -2.133  0.00  0.00     0.074 A 
ATOM     10  C5  <0> d   1       0.969  -2.920  -2.282  0.00  0.00     0.071 A 
ATOM     11  C21 <0> d   1       1.599  -2.694  -3.499  0.00  0.00     0.038 A 
ATOM     12  C20 <0> d   1       1.374  -3.540  -4.564  0.00  0.00     0.019 A 
BRANCH   8  13
ATOM     13  O2  <0> d   1      -0.985  -5.893  -3.053  0.00  0.00    -0.360 OA
ATOM     14  H21 <0> d   1      -1.905  -5.687  -3.270  0.00  0.00     0.217 HD
ENDBRANCH   8  13
BRANCH  10  15
ATOM     15  O1  <0> d   1       1.199  -2.085  -1.236  0.00  0.00    -0.347 OA
BRANCH  15  16
ATOM     16  C4  <0> d   1       2.099  -0.997  -1.459  0.00  0.00     0.208 C 
BRANCH  16  17
ATOM     17  C2  <0> d   1       2.230  -0.186  -0.196  0.00  0.00    -0.069 C 
ATOM     18  C1  <0> d   1       3.127   1.025  -0.168  0.00  0.00     0.044 C 
ATOM     19  C3  <0> d   1       1.564  -0.532   0.877  0.00  0.00     0.016 C 
ENDBRANCH  16  17
ENDBRANCH  15  16
ENDBRANCH  10  15
ENDBRANCH   1   7
BRANCH   2  20
ATOM     20  C13 <0> d   1      -0.214  -3.547  -7.046  0.00  0.00    -0.022 A 
ATOM     21  C18 <0> d   1       0.539  -2.922  -8.039  0.00  0.00     0.015 A 
ATOM     22  C17 <0> d   1       0.417  -1.563  -8.242  0.00  0.00     0.037 A 
ATOM     23  C16 <0> d   1      -0.445  -0.817  -7.451  0.00  0.00     0.068 A 
ATOM     24  C15 <0> d   1      -1.192  -1.435  -6.458  0.00  0.00     0.037 A 
ATOM     25  C14 <0> d   1      -1.080  -2.794  -6.254  0.00  0.00     0.015 A 
BRANCH  23  26
ATOM     26  O3  <0> d   1      -0.559   0.523  -7.650  0.00  0.00    -0.356 OA
ATOM     27  C19 <0> d   1       0.238   1.095  -8.689  0.00  0.00     0.210 C 
ENDBRANCH  23  26
ENDBRANCH   2  20
BRANCH   5  28
ATOM     28  N3  <0> d   1       0.245  -9.024  -6.245  0.00  0.00    -0.231 N 
ATOM     29  H10 <0> d   1       0.086  -9.634  -6.983  0.00  0.00     0.174 HD
ATOM     30  H11 <0> d   1       0.483  -9.373  -5.372  0.00  0.00     0.174 HD
ENDBRANCH   5  28
TORSDOF 8
