REMARK  8 active torsions:
REMARK  status: ('A' for Active; 'I' for Inactive)
REMARK    1  A    between atoms: C3_3  and  C23_31 
REMARK    2  A    between atoms: C4_4  and  C5_8 
REMARK    3  A    between atoms: C8_11  and  O2_15 
REMARK    4  A    between atoms: C10_13  and  O1_14 
REMARK    5  A    between atoms: O2_15  and  C11_16 
REMARK    6  A    between atoms: C11_16  and  C12_17 
REMARK    7  A    between atoms: C12_17  and  N3_18 
REMARK    8  A    between atoms: N4_21  and  C17_24 
ROOT
ATOM      1  C5  <0> d   1      -0.155  -3.448  -1.314  0.00  0.00     0.026 A 
ATOM      2  C6  <0> d   1      -1.197  -4.378  -1.319  0.00  0.00     0.019 A 
ATOM      3  C7  <0> d   1      -1.147  -5.463  -2.168  0.00  0.00     0.038 A 
ATOM      4  C8  <0> d   1      -0.062  -5.635  -3.019  0.00  0.00     0.071 A 
ATOM      5  C9  <0> d   1       0.978  -4.716  -3.021  0.00  0.00     0.074 A 
ATOM      6  C10 <0> d   1       0.935  -3.620  -2.177  0.00  0.00     0.081 A 
ENDROOT
BRANCH   4   7
ATOM      7  O2  <0> d   1      -0.019  -6.707  -3.852  0.00  0.00    -0.349 OA
BRANCH   7   8
ATOM      8  C11 <0> d   1      -1.122  -7.614  -3.799  0.00  0.00     0.203 C 
BRANCH   8   9
ATOM      9  C12 <0> d   1      -0.897  -8.749  -4.801  0.00  0.00     0.261 C 
BRANCH   9  10
ATOM     10  N3  <0> d   1       0.302  -9.508  -4.420  0.00  0.00    -0.066 N 
ATOM     11  C16 <0> d   1       0.063 -10.189  -3.142  0.00  0.00     0.254 C 
ATOM     12  C15 <0> d   1       1.349 -10.887  -2.687  0.00  0.00     0.150 C 
ATOM     13  N4  <0> d   1       1.808 -11.771  -3.770  0.00  0.00    -0.378 N 
ATOM     14  C14 <0> d   1       1.920 -11.207  -5.124  0.00  0.00     0.150 C 
ATOM     15  C13 <0> d   1       0.607 -10.495  -5.464  0.00  0.00     0.254 C 
ATOM     16  H30 <0> d   1       1.082  -8.875  -4.322  0.00  0.00     0.280 HD
BRANCH  13  17
ATOM     17  C17 <0> d   1       2.128 -13.107  -3.519  0.00  0.00     0.031 A 
ATOM     18  C22 <0> d   1       1.899 -13.653  -2.263  0.00  0.00     0.053 A 
ATOM     19  C21 <0> d   1       2.212 -14.978  -2.020  0.00  0.00     0.036 A 
ATOM     20  C20 <0> d   1       2.763 -15.755  -3.023  0.00  0.00     0.024 A 
ATOM     21 Cl1  <0> d   1       1.919 -15.665  -0.453  0.00  0.00    -0.084 Cl
ATOM     22  C19 <0> d   1       2.998 -15.211  -4.273  0.00  0.00     0.004 A 
ATOM     23  C18 <0> d   1       2.682 -13.890  -4.524  0.00  0.00     0.029 A 
ENDBRANCH  13  17
ENDBRANCH   9  10
ENDBRANCH   8   9
ENDBRANCH   7   8
ENDBRANCH   4   7
BRANCH   6  24
ATOM     24  O1  <0> d   1       1.949  -2.717  -2.182  0.00  0.00    -0.360 OA
ATOM     25  H8  <0> d   1       2.661  -2.922  -1.561  0.00  0.00     0.217 HD
ENDBRANCH   6  24
BRANCH   1  26
ATOM     26  C4  <0> d   1      -0.206  -2.285  -0.406  0.00  0.00     0.076 A 
ATOM     27  C3  <0> d   1      -0.298  -0.950  -0.779  0.00  0.00     0.029 A 
ATOM     28  C2  <0> d   1      -0.318  -0.187   0.403  0.00  0.00     0.064 A 
ATOM     29  C1  <0> d   1      -0.410   1.315   0.479  0.00  0.00     0.073 C 
ATOM     30  N2  <0> d   1      -0.236  -0.999   1.423  0.00  0.00    -0.178 NA
ATOM     31  N1  <0> d   1      -0.171  -2.317   0.956  0.00  0.00    -0.276 N 
ATOM     32  H1  <0> d   1      -0.107  -3.113   1.505  0.00  0.00     0.189 HD
BRANCH  27  33
ATOM     33  C23 <0> d   1      -0.365  -0.426  -2.164  0.00  0.00    -0.022 A 
ATOM     34  C28 <0> d   1       0.669   0.365  -2.663  0.00  0.00     0.012 A 
ATOM     35  C27 <0> d   1       0.604   0.845  -3.956  0.00  0.00     0.001 A 
ATOM     36  C26 <0> d   1      -0.489   0.552  -4.751  0.00  0.00     0.000 A 
ATOM     37  C25 <0> d   1      -1.521  -0.227  -4.259  0.00  0.00     0.001 A 
ATOM     38  C24 <0> d   1      -1.464  -0.718  -2.970  0.00  0.00     0.012 A 
ENDBRANCH  27  33
ENDBRANCH   1  26
TORSDOF 8
