REMARK  4 active torsions:
REMARK  status: ('A' for Active; 'I' for Inactive)
REMARK    1  A    between atoms: N2_5  and  C6_8 
REMARK    2  A    between atoms: C6_8  and  C7_9 
REMARK    3  A    between atoms: C8_10  and  O5_29 
REMARK    4  A    between atoms: C14_17  and  C15_18 
ROOT
ATOM      1  C7  <0> d   1       2.321  -4.037   1.199  0.00  0.00     0.038 A 
ATOM      2  C8  <0> d   1       3.643  -4.315   0.888  0.00  0.00     0.076 A 
ATOM      3  C9  <0> d   1       4.437  -5.048   1.764  0.00  0.00     0.038 A 
ATOM      4  C10 <0> d   1       3.919  -5.503   2.944  0.00  0.00     0.021 A 
ATOM      5  C11 <0> d   1       2.591  -5.230   3.271  0.00  0.00     0.051 A 
ATOM      6  C12 <0> d   1       1.781  -4.486   2.397  0.00  0.00     0.101 A 
ATOM      7  O1  <0> d   1       0.547  -4.347   2.928  0.00  0.00    -0.305 OA
ATOM      8  C13 <0> d   1       0.447  -4.951   4.136  0.00  0.00     0.127 A 
ATOM      9  C14 <0> d   1      -0.658  -4.992   4.924  0.00  0.00     0.053 C 
ATOM     10  C22 <0> d   1       1.749  -5.566   4.434  0.00  0.00     0.218 A 
ATOM     11  O4  <0> d   1       2.065  -6.200   5.425  0.00  0.00    -0.284 OA
ENDROOT
BRANCH   9  12
ATOM     12  C15 <0> d   1      -1.934  -4.463   4.427  0.00  0.00    -0.031 A 
ATOM     13  C20 <0> d   1      -3.032  -4.350   5.289  0.00  0.00     0.051 A 
ATOM     14  C19 <0> d   1      -4.228  -3.848   4.817  0.00  0.00     0.105 A 
ATOM     15  C18 <0> d   1      -4.345  -3.463   3.480  0.00  0.00     0.105 A 
ATOM     16  O2  <0> d   1      -5.425  -3.635   5.438  0.00  0.00    -0.323 OA
ATOM     17  C17 <0> d   1      -3.257  -3.579   2.623  0.00  0.00     0.040 A 
ATOM     18  O3  <0> d   1      -5.614  -3.011   3.268  0.00  0.00    -0.323 OA
ATOM     19  C16 <0> d   1      -2.059  -4.074   3.087  0.00  0.00     0.014 A 
ATOM     20  C21 <0> d   1      -6.150  -2.738   4.576  0.00  0.00     0.352 C 
ENDBRANCH   9  12
BRANCH   1  21
ATOM     21  C6  <0> d   1       1.473  -3.241   0.241  0.00  0.00     0.317 C 
BRANCH  21  22
ATOM     22  N2  <0> d   1       1.596  -1.811   0.549  0.00  0.00     0.096 N 
ATOM     23  C3  <0> d   1       0.978  -0.990  -0.501  0.00  0.00     0.303 C 
ATOM     24  C2  <0> d   1       1.197   0.491  -0.184  0.00  0.00     0.302 C 
ATOM     25  N1  <0> d   1       0.616   0.798   1.131  0.00  0.00     0.087 N 
ATOM     26  C1  <0> d   1       0.740   2.229   1.439  0.00  0.00     0.310 C 
ATOM     27  C5  <0> d   1       1.234  -0.022   2.182  0.00  0.00     0.302 C 
ATOM     28  C4  <0> d   1       1.015  -1.503   1.864  0.00  0.00     0.303 C 
ENDBRANCH  21  22
ENDBRANCH   1  21
BRANCH   2  29
ATOM     29  O5  <0> d   1       4.166  -3.869  -0.283  0.00  0.00    -0.360 OA
ATOM     30  H22 <0> d   1       4.569  -2.992  -0.225  0.00  0.00     0.217 HD
ENDBRANCH   2  29
TORSDOF 4
