REMARK  6 active torsions:
REMARK  status: ('A' for Active; 'I' for Inactive)
REMARK    1  A    between atoms: C4_4  and  C7_7 
REMARK    2  A    between atoms: C7_7  and  N1_8 
REMARK    3  A    between atoms: N2_11  and  C12_14 
REMARK    4  A    between atoms: C12_14  and  C13_15 
REMARK    5  A    between atoms: C19_23  and  O3_32 
REMARK    6  A    between atoms: C20_24  and  C22_26 
ROOT
ATOM      1  C13 <0> d   1      -2.780   3.874  -0.013  0.00  0.00    -0.011 A 
ATOM      2  C14 <0> d   1      -1.836   3.023   0.465  0.00  0.00     0.092 A 
ATOM      3  C15 <0> d   1      -2.046   1.629   0.392  0.00  0.00     0.288 A 
ATOM      4  O1  <0> d   1      -1.187   0.876   0.815  0.00  0.00    -0.260 OA
ATOM      5  O2  <0> d   1      -3.168   1.113  -0.131  0.00  0.00    -0.275 OA
ATOM      6  C16 <0> d   1      -4.152   1.904  -0.614  0.00  0.00     0.091 A 
ATOM      7  C17 <0> d   1      -4.006   3.303  -0.577  0.00  0.00     0.009 A 
ATOM      8  C18 <0> d   1      -5.022   4.130  -1.069  0.00  0.00     0.052 A 
ATOM      9  C19 <0> d   1      -6.166   3.569  -1.595  0.00  0.00     0.077 A 
ATOM     10  C20 <0> d   1      -6.310   2.174  -1.637  0.00  0.00     0.010 A 
ATOM     11  C21 <0> d   1      -5.303   1.349  -1.149  0.00  0.00     0.053 A 
ENDROOT
BRANCH   1  12
ATOM     12  C12 <0> d   1      -2.580   5.366   0.053  0.00  0.00     0.312 C 
BRANCH  12  13
ATOM     13  N2  <0> d   1      -2.255   5.876  -1.285  0.00  0.00     0.096 N 
ATOM     14  C9  <0> d   1      -2.420   7.335  -1.347  0.00  0.00     0.303 C 
ATOM     15  C8  <0> d   1      -2.149   7.816  -2.775  0.00  0.00     0.303 C 
ATOM     16  N1  <0> d   1      -0.789   7.426  -3.171  0.00  0.00     0.096 N 
ATOM     17  C11 <0> d   1      -0.624   5.967  -3.109  0.00  0.00     0.303 C 
ATOM     18  C10 <0> d   1      -0.894   5.486  -1.681  0.00  0.00     0.303 C 
BRANCH  16  19
ATOM     19  C7  <0> d   1      -0.463   7.936  -4.510  0.00  0.00     0.311 C 
BRANCH  19  20
ATOM     20  C4  <0> d   1       0.827   7.319  -4.982  0.00  0.00    -0.030 A 
ATOM     21  C3  <0> d   1       0.807   6.133  -5.692  0.00  0.00     0.009 A 
ATOM     22  C2  <0> d   1       1.991   5.566  -6.126  0.00  0.00     0.001 A 
ATOM     23  C1  <0> d   1       3.196   6.186  -5.850  0.00  0.00     0.000 A 
ATOM     24  C6  <0> d   1       3.216   7.372  -5.141  0.00  0.00     0.001 A 
ATOM     25  C5  <0> d   1       2.031   7.941  -4.711  0.00  0.00     0.009 A 
ENDBRANCH  19  20
ENDBRANCH  16  19
ENDBRANCH  12  13
ENDBRANCH   1  12
BRANCH   9  26
ATOM     26  O3  <0> d   1      -7.155   4.368  -2.075  0.00  0.00    -0.360 OA
ATOM     27  H26 <0> d   1      -8.068   3.921  -2.495  0.00  0.00     0.217 HD
ENDBRANCH   9  26
BRANCH  10  28
ATOM     28  C22 <0> d   1      -7.543   1.577  -2.205  0.00  0.00    -0.023 A 
ATOM     29  C27 <0> d   1      -8.794   2.021  -1.780  0.00  0.00     0.012 A 
ATOM     30  C26 <0> d   1      -9.938   1.461  -2.311  0.00  0.00     0.001 A 
ATOM     31  C25 <0> d   1      -9.845   0.463  -3.264  0.00  0.00     0.000 A 
ATOM     32  C24 <0> d   1      -8.606   0.018  -3.689  0.00  0.00     0.001 A 
ATOM     33  C23 <0> d   1      -7.455   0.574  -3.169  0.00  0.00     0.012 A 
ENDBRANCH  10  28
TORSDOF 6
