REMARK  4 active torsions:
REMARK  status: ('A' for Active; 'I' for Inactive)
REMARK    1  A    between atoms: C5_5  and  C17_20 
REMARK    2  A    between atoms: C10_11  and  C11_12 
REMARK    3  A    between atoms: C17_20  and  N1_21 
REMARK    4  A    between atoms: N2_24  and  C22_27 
ROOT
ATOM      1  C1  <0> d   1      -0.509   1.825   0.176  0.00  0.00     0.049 C 
ATOM      2  C2  <0> d   1      -0.358   0.332   0.041  0.00  0.00    -0.042 A 
ATOM      3  C3  <0> d   1      -0.361  -0.248  -1.196  0.00  0.00     0.048 A 
ATOM      4  C4  <0> d   1      -0.222  -1.627  -1.323  0.00  0.00     0.118 A 
ATOM      5  C5  <0> d   1      -0.080  -2.427  -0.201  0.00  0.00     0.041 A 
ATOM      6  C6  <0> d   1      -0.076  -1.854   1.065  0.00  0.00     0.102 A 
ATOM      7  C7  <0> d   1      -0.211  -0.461   1.180  0.00  0.00     0.057 A 
ATOM      8  C8  <0> d   1      -0.164  -0.157   2.622  0.00  0.00     0.219 A 
ATOM      9  O1  <0> d   1      -0.250   0.935   3.156  0.00  0.00    -0.284 OA
ATOM     10  C9  <0> d   1       0.010  -1.466   3.269  0.00  0.00     0.128 A 
ATOM     11  C10 <0> d   1       0.108  -1.693   4.603  0.00  0.00     0.053 C 
ATOM     12  O2  <0> d   1       0.044  -2.403   2.293  0.00  0.00    -0.305 OA
ATOM     13  O3  <0> d   1      -0.225  -2.193  -2.557  0.00  0.00    -0.191 OA
ENDROOT
BRANCH   5  14
ATOM     14  C17 <0> d   1       0.069  -3.919  -0.353  0.00  0.00     0.317 C 
BRANCH  14  15
ATOM     15  N1  <0> d   1       1.492  -4.260  -0.473  0.00  0.00     0.096 N 
ATOM     16  C21 <0> d   1       1.696  -5.712  -0.385  0.00  0.00     0.292 C 
ATOM     17  C20 <0> d   1       3.197  -6.012  -0.332  0.00  0.00     0.153 C 
ATOM     18  N2  <0> d   1       3.845  -5.362  -1.481  0.00  0.00    -0.377 N 
ATOM     19  C19 <0> d   1       3.578  -3.934  -1.714  0.00  0.00     0.153 C 
ATOM     20  C18 <0> d   1       2.061  -3.716  -1.713  0.00  0.00     0.292 C 
BRANCH  18  21
ATOM     21  C22 <0> d   1       4.691  -6.081  -2.329  0.00  0.00     0.031 A 
ATOM     22  C27 <0> d   1       5.388  -5.426  -3.335  0.00  0.00     0.053 A 
ATOM     23  C26 <0> d   1       6.228  -6.140  -4.169  0.00  0.00     0.036 A 
ATOM     24  C25 <0> d   1       6.367  -7.507  -4.007  0.00  0.00     0.024 A 
ATOM     25 Cl1  <0> d   1       7.106  -5.321  -5.423  0.00  0.00    -0.084 Cl
ATOM     26  C24 <0> d   1       5.669  -8.162  -3.009  0.00  0.00     0.004 A 
ATOM     27  C23 <0> d   1       4.833  -7.454  -2.170  0.00  0.00     0.029 A 
ENDBRANCH  18  21
ENDBRANCH  14  15
ENDBRANCH   5  14
BRANCH  11  28
ATOM     28  C11 <0> d   1       0.169  -3.070   5.111  0.00  0.00    -0.033 A 
ATOM     29  C16 <0> d   1       0.254  -4.146   4.219  0.00  0.00     0.014 A 
ATOM     30  C15 <0> d   1       0.317  -5.434   4.702  0.00  0.00     0.043 A 
ATOM     31  C14 <0> d   1       0.283  -5.668   6.069  0.00  0.00     0.116 A 
ATOM     32  C13 <0> d   1       0.193  -4.608   6.958  0.00  0.00     0.043 A 
ATOM     33  F1  <0> d   1       0.339  -6.935   6.536  0.00  0.00    -0.206 F 
ATOM     34  C12 <0> d   1       0.135  -3.314   6.489  0.00  0.00     0.014 A 
ENDBRANCH  11  28
TORSDOF 4
