REMARK  10 active torsions:
REMARK  status: ('A' for Active; 'I' for Inactive)
REMARK    1  A    between atoms: O1_2  and  C2_3 
REMARK    2  A    between atoms: C2_3  and  C3_4 
REMARK    3  A    between atoms: C3_4  and  N1_5 
REMARK    4  A    between atoms: N1_5  and  C4_6 
REMARK    5  A    between atoms: N1_5  and  C7_10 
REMARK    6  A    between atoms: C4_6  and  C5_7 
REMARK    7  A    between atoms: C5_7  and  O2_8 
REMARK    8  A    between atoms: C7_10  and  C8_11 
REMARK    9  A    between atoms: C15_19  and  C16_20 
REMARK   10  A    between atoms: C19_23  and  C22_26 
ROOT
ATOM      1  C8  <0> d   1       0.173  -4.244   0.571  0.00  0.00     0.039 A 
ATOM      2  C9  <0> d   1      -0.080  -4.640  -0.733  0.00  0.00     0.118 A 
ATOM      3  C10 <0> d   1       0.904  -5.279  -1.482  0.00  0.00     0.041 A 
ATOM      4  C11 <0> d   1       2.133  -5.522  -0.936  0.00  0.00     0.021 A 
ATOM      5  C12 <0> d   1       2.401  -5.128   0.375  0.00  0.00     0.051 A 
ATOM      6  C13 <0> d   1       1.419  -4.478   1.139  0.00  0.00     0.101 A 
ATOM      7  O3  <0> d   1       1.910  -4.190   2.364  0.00  0.00    -0.305 OA
ATOM      8  C14 <0> d   1       3.192  -4.600   2.501  0.00  0.00     0.127 A 
ATOM      9  C15 <0> d   1       3.965  -4.459   3.608  0.00  0.00     0.053 C 
ATOM     10  C28 <0> d   1       3.592  -5.239   1.238  0.00  0.00     0.218 A 
ATOM     11  O4  <0> d   1       4.670  -5.735   0.961  0.00  0.00    -0.284 OA
ATOM     12  O5  <0> d   1      -1.298  -4.404  -1.284  0.00  0.00    -0.191 OA
ENDROOT
BRANCH   9  13
ATOM     13  C16 <0> d   1       3.379  -3.944   4.852  0.00  0.00    -0.033 A 
ATOM     14  C21 <0> d   1       4.201  -3.662   5.951  0.00  0.00     0.012 A 
ATOM     15  C20 <0> d   1       3.654  -3.179   7.105  0.00  0.00     0.013 A 
ATOM     16  C19 <0> d   1       2.276  -2.976   7.194  0.00  0.00    -0.026 A 
ATOM     17  C18 <0> d   1       1.454  -3.261   6.103  0.00  0.00     0.013 A 
ATOM     18  C17 <0> d   1       1.996  -3.739   4.944  0.00  0.00     0.012 A 
BRANCH  16  19
ATOM     19  C22 <0> d   1       1.684  -2.456   8.450  0.00  0.00    -0.026 A 
ATOM     20  C27 <0> d   1       2.501  -2.170   9.543  0.00  0.00     0.012 A 
ATOM     21  C26 <0> d   1       1.945  -1.682  10.707  0.00  0.00     0.001 A 
ATOM     22  C25 <0> d   1       0.579  -1.487  10.796  0.00  0.00     0.000 A 
ATOM     23  C24 <0> d   1      -0.238  -1.774   9.717  0.00  0.00     0.001 A 
ATOM     24  C23 <0> d   1       0.307  -2.257   8.545  0.00  0.00     0.012 A 
ENDBRANCH  16  19
ENDBRANCH   9  13
BRANCH   1  25
ATOM     25  C7  <0> d   1      -0.902  -3.553   1.370  0.00  0.00     0.279 C 
BRANCH  25  26
ATOM     26  N1  <0> d   1      -0.809  -2.102   1.165  0.00  0.00    -0.063 N 
ATOM     27  H29 <0> d   1       0.133  -1.795   1.354  0.00  0.00     0.280 HD
BRANCH  26  28
ATOM     28  C3  <0> d   1      -1.159  -1.781  -0.225  0.00  0.00     0.261 C 
BRANCH  28  29
ATOM     29  C2  <0> d   1      -0.959  -0.283  -0.469  0.00  0.00     0.194 C 
BRANCH  29  30
ATOM     30  O1  <0> d   1       0.428   0.037  -0.346  0.00  0.00    -0.394 OA
ATOM     31  C1  <0> d   1       0.713   1.435  -0.445  0.00  0.00     0.201 C 
ENDBRANCH  29  30
ENDBRANCH  28  29
ENDBRANCH  26  28
BRANCH  26  32
ATOM     32  C4  <0> d   1      -1.738  -1.418   2.074  0.00  0.00     0.261 C 
BRANCH  32  33
ATOM     33  C5  <0> d   1      -3.155  -1.948   1.849  0.00  0.00     0.194 C 
BRANCH  33  34
ATOM     34  O2  <0> d   1      -3.235  -3.303   2.299  0.00  0.00    -0.394 OA
ATOM     35  C6  <0> d   1      -4.490  -3.931   2.033  0.00  0.00     0.201 C 
ENDBRANCH  33  34
ENDBRANCH  32  33
ENDBRANCH  26  32
ENDBRANCH  25  26
ENDBRANCH   1  25
TORSDOF 10
