REMARK  6 active torsions:
REMARK  status: ('A' for Active; 'I' for Inactive)
REMARK    1  A    between atoms: C2_2  and  N1_3 
REMARK    2  A    between atoms: C4_5  and  C12_14 
REMARK    3  A    between atoms: C9_10  and  O1_12 
REMARK    4  A    between atoms: C18_21  and  O4_33 
REMARK    5  A    between atoms: C19_22  and  C21_25 
REMARK    6  A    between atoms: C21_25  and  N2_26 
ROOT
ATOM      1  C12 <0> d   1       4.668   2.814  -0.029  0.00  0.00     0.055 C 
ATOM      2  C13 <0> d   1       3.307   2.879  -0.015  0.00  0.00     0.128 A 
ATOM      3  C14 <0> d   1       2.533   4.069  -0.001  0.00  0.00     0.218 A 
ATOM      4  O2  <0> d   1       2.942   5.219   0.000  0.00  0.00    -0.284 OA
ATOM      5  C15 <0> d   1       1.131   3.618   0.010  0.00  0.00     0.051 A 
ATOM      6  C16 <0> d   1      -0.093   4.286   0.026  0.00  0.00     0.021 A 
ATOM      7  C17 <0> d   1      -1.258   3.572   0.034  0.00  0.00     0.038 A 
ATOM      8  C18 <0> d   1      -1.227   2.180   0.020  0.00  0.00     0.076 A 
ATOM      9  C19 <0> d   1      -0.018   1.503   0.010  0.00  0.00     0.036 A 
ATOM     10  C20 <0> d   1       1.174   2.214   0.003  0.00  0.00     0.101 A 
ATOM     11  O3  <0> d   1       2.465   1.819  -0.012  0.00  0.00    -0.305 OA
ENDROOT
BRANCH   1  12
ATOM     12  C4  <0> d   1       5.338   1.516  -0.042  0.00  0.00    -0.005 A 
ATOM     13  C3  <0> d   1       4.737   0.275  -0.036  0.00  0.00     0.103 A 
ATOM     14  N1  <0> d   1       5.689  -0.689  -0.057  0.00  0.00    -0.356 N 
ATOM     15  C6  <0> d   1       6.950  -0.124  -0.066  0.00  0.00     0.045 A 
ATOM     16  C5  <0> d   1       6.793   1.270  -0.058  0.00  0.00     0.005 A 
ATOM     17  C7  <0> d   1       8.231  -0.668  -0.082  0.00  0.00     0.033 A 
ATOM     18  C10 <0> d   1       7.911   2.100  -0.065  0.00  0.00     0.051 A 
ATOM     19  C9  <0> d   1       9.176   1.544  -0.080  0.00  0.00     0.069 A 
ATOM     20  C8  <0> d   1       9.332   0.161  -0.088  0.00  0.00     0.039 A 
BRANCH  14  21
ATOM     21  C2  <0> d   1       5.419  -2.129  -0.061  0.00  0.00     0.124 C 
ATOM     22  C1  <0> d   1       5.463  -2.661   1.373  0.00  0.00     0.027 C 
ENDBRANCH  14  21
BRANCH  19  23
ATOM     23  O1  <0> d   1      10.272   2.349  -0.086  0.00  0.00    -0.356 OA
ATOM     24  C11 <0> d   1      11.549   1.707  -0.102  0.00  0.00     0.210 C 
ENDBRANCH  19  23
ENDBRANCH   1  12
BRANCH   9  25
ATOM     25  C21 <0> d   1       0.002  -0.004   0.002  0.00  0.00     0.279 C 
BRANCH  25  26
ATOM     26  N2  <0> d   1       0.022  -0.501   1.384  0.00  0.00    -0.063 N 
ATOM     27  C26 <0> d   1      -0.196  -1.953   1.425  0.00  0.00     0.184 C 
ATOM     28  C25 <0> d   1      -0.025  -2.456   2.860  0.00  0.00     0.033 C 
ATOM     29  C27 <0> d   1       0.821  -2.647   0.516  0.00  0.00     0.040 C 
ATOM     30  C24 <0> d   1      -1.031  -1.744   3.768  0.00  0.00     0.004 C 
ATOM     31  C23 <0> d   1      -0.814  -0.232   3.671  0.00  0.00     0.028 C 
ATOM     32  C22 <0> d   1      -0.963   0.207   2.212  0.00  0.00     0.235 C 
ATOM     33  H30 <0> d   1       1.019  -0.300   1.803  0.00  0.00     0.280 HD
ENDBRANCH  25  26
ENDBRANCH   9  25
BRANCH   8  34
ATOM     34  O4  <0> d   1      -2.390   1.481   0.021  0.00  0.00    -0.360 OA
ATOM     35  H31 <0> d   1      -2.371   0.381   0.010  0.00  0.00     0.217 HD
ENDBRANCH   8  34
TORSDOF 6
