REMARK  3 active torsions:
REMARK  status: ('A' for Active; 'I' for Inactive)
REMARK    1  A    between atoms: N1_6  and  C7_8 
REMARK    2  A    between atoms: C7_8  and  C8_9 
REMARK    3  A    between atoms: C15_17  and  C17_20 
ROOT
ATOM      1  C8  <0> d   1      -7.212  -3.040  -0.151  0.00  0.00     0.039 A 
ATOM      2  C9  <0> d   1      -8.255  -2.813   0.731  0.00  0.00     0.118 A 
ATOM      3  C10 <0> d   1      -8.158  -1.823   1.706  0.00  0.00     0.041 A 
ATOM      4  C11 <0> d   1      -7.029  -1.060   1.803  0.00  0.00     0.021 A 
ATOM      5  C12 <0> d   1      -5.969  -1.277   0.921  0.00  0.00     0.050 A 
ATOM      6  C13 <0> d   1      -6.057  -2.274  -0.066  0.00  0.00     0.100 A 
ATOM      7  O1  <0> d   1      -5.033  -2.481  -0.917  0.00  0.00    -0.320 OA
ATOM      8  C14 <0> d   1      -3.900  -1.774  -0.887  0.00  0.00     0.159 A 
ATOM      9  C15 <0> d   1      -3.680  -0.785   0.018  0.00  0.00     0.048 A 
ATOM     10  C16 <0> d   1      -4.735  -0.474   0.997  0.00  0.00     0.197 A 
ATOM     11  O2  <0> d   1      -4.595   0.406   1.830  0.00  0.00    -0.286 OA
ATOM     12  O5  <0> d   1      -9.383  -3.563   0.645  0.00  0.00    -0.191 OA
ENDROOT
BRANCH   9  13
ATOM     13  C17 <0> d   1      -2.403  -0.030   0.016  0.00  0.00    -0.017 A 
ATOM     14  C22 <0> d   1      -1.189  -0.712   0.004  0.00  0.00     0.052 A 
ATOM     15  C21 <0> d   1       0.002  -0.004   0.002  0.00  0.00     0.102 A 
ATOM     16  C20 <0> d   1      -0.017   1.387   0.010  0.00  0.00     0.102 A 
ATOM     17  O3  <0> d   1       1.181  -0.685  -0.007  0.00  0.00    -0.346 OA
ATOM     18  C19 <0> d   1      -1.228   2.065   0.019  0.00  0.00     0.040 A 
ATOM     19  O4  <0> d   1       1.144   2.098   0.002  0.00  0.00    -0.346 OA
ATOM     20  C18 <0> d   1      -2.416   1.364   0.026  0.00  0.00     0.015 A 
ATOM     21  C24 <0> d   1       2.335   1.391   0.365  0.00  0.00     0.202 C 
ATOM     22  C23 <0> d   1       2.347   0.053  -0.387  0.00  0.00     0.202 C 
ENDBRANCH   9  13
BRANCH   1  23
ATOM     23  C7  <0> d   1      -7.331  -4.114  -1.202  0.00  0.00     0.279 C 
BRANCH  23  24
ATOM     24  N1  <0> d   1      -6.824  -5.383  -0.663  0.00  0.00    -0.067 N 
ATOM     25  C5  <0> d   1      -7.676  -5.869   0.430  0.00  0.00     0.235 C 
ATOM     26  C4  <0> d   1      -7.205  -7.257   0.868  0.00  0.00     0.028 C 
ATOM     27  C3  <0> d   1      -5.747  -7.175   1.330  0.00  0.00     0.007 C 
ATOM     28  C2  <0> d   1      -4.889  -6.621   0.189  0.00  0.00     0.007 C 
ATOM     29  C1  <0> d   1      -3.441  -6.480   0.660  0.00  0.00     0.011 C 
ATOM     30  C6  <0> d   1      -5.427  -5.251  -0.229  0.00  0.00     0.239 C 
ATOM     31  H25 <0> d   1      -6.855  -6.131  -1.469  0.00  0.00     0.280 HD
ENDBRANCH  23  24
ENDBRANCH   1  23
TORSDOF 3
