REMARK  5 active torsions:
REMARK  status: ('A' for Active; 'I' for Inactive)
REMARK    1  A    between atoms: C7_8  and  C8_10 
REMARK    2  A    between atoms: C13_15  and  O3_34 
REMARK    3  A    between atoms: C14_16  and  C17_21 
REMARK    4  A    between atoms: C17_21  and  N2_22 
REMARK    5  A    between atoms: N3_25  and  C22_28 
ROOT
ATOM      1  C8  <0> d   1       3.202  -4.096  -0.101  0.00  0.00     0.076 C 
ATOM      2  C9  <0> d   1       4.468  -4.615  -0.325  0.00  0.00     0.034 C 
ATOM      3  C10 <0> d   1       4.603  -6.022  -0.445  0.00  0.00    -0.000 A 
ATOM      4  C11 <0> d   1       5.874  -6.615  -0.471  0.00  0.00     0.017 A 
ATOM      5  C12 <0> d   1       5.989  -7.971  -0.544  0.00  0.00     0.038 A 
ATOM      6  C13 <0> d   1       4.852  -8.776  -0.602  0.00  0.00     0.076 A 
ATOM      7  C14 <0> d   1       3.588  -8.208  -0.598  0.00  0.00     0.035 A 
ATOM      8  C15 <0> d   1       3.453  -6.830  -0.530  0.00  0.00     0.100 A 
ATOM      9  O1  <0> d   1       2.224  -6.261  -0.569  0.00  0.00    -0.273 OA
ATOM     10  C16 <0> d   1       2.091  -5.054   0.035  0.00  0.00     0.301 C 
ATOM     11  O2  <0> d   1       1.089  -4.770   0.665  0.00  0.00    -0.259 OA
ENDROOT
BRANCH   7  12
ATOM     12  C17 <0> d   1       2.365  -9.085  -0.666  0.00  0.00     0.279 C 
BRANCH  12  13
ATOM     13  N2  <0> d   1       1.940  -9.440   0.695  0.00  0.00    -0.064 N 
ATOM     14  C21 <0> d   1       0.682 -10.194   0.632  0.00  0.00     0.255 C 
ATOM     15  C20 <0> d   1       0.179 -10.466   2.053  0.00  0.00     0.152 C 
ATOM     16  N3  <0> d   1       1.250 -11.135   2.807  0.00  0.00    -0.363 N 
ATOM     17  C19 <0> d   1       2.592 -10.532   2.789  0.00  0.00     0.152 C 
ATOM     18  C18 <0> d   1       2.981 -10.257   1.332  0.00  0.00     0.255 C 
ATOM     19  H23 <0> d   1       1.800  -8.598   1.232  0.00  0.00     0.280 HD
BRANCH  16  20
ATOM     20  C22 <0> d   1       1.002 -12.304   3.517  0.00  0.00     0.125 A 
ATOM     21  N4  <0> d   1      -0.150 -12.937   3.357  0.00  0.00    -0.244 NA
ATOM     22  C26 <0> d   1      -0.422 -14.052   4.008  0.00  0.00     0.119 A 
ATOM     23  C25 <0> d   1       0.487 -14.596   4.892  0.00  0.00     0.019 A 
ATOM     24  C24 <0> d   1       1.705 -13.961   5.093  0.00  0.00     0.005 A 
ATOM     25  C23 <0> d   1       1.965 -12.796   4.393  0.00  0.00     0.050 A 
ENDBRANCH  16  20
ENDBRANCH  12  13
ENDBRANCH   7  12
BRANCH   6  26
ATOM     26  O3  <0> d   1       4.984 -10.126  -0.664  0.00  0.00    -0.360 OA
ATOM     27  H22 <0> d   1       5.007 -10.558   0.201  0.00  0.00     0.217 HD
ENDBRANCH   6  26
BRANCH   1  28
ATOM     28  C7  <0> d   1       2.977  -2.643   0.003  0.00  0.00     0.115 A 
ATOM     29  N1  <0> d   1       1.851  -1.994   0.216  0.00  0.00    -0.239 NA
ATOM     30  C5  <0> d   1       1.793  -0.650   0.288  0.00  0.00     0.075 A 
ATOM     31  C4  <0> d   1       3.024   0.028   0.120  0.00  0.00     0.035 A 
ATOM     32  C6  <0> d   1       0.657   0.165   0.510  0.00  0.00     0.033 A 
ATOM     33  C3  <0> d   1       3.126   1.396   0.166  0.00  0.00     0.021 A 
ATOM     34  S1  <0> d   1       4.164  -1.312  -0.128  0.00  0.00    -0.067 SA
ATOM     35  C2  <0> d   1       1.992   2.156   0.386  0.00  0.00     0.002 A 
ATOM     36  C1  <0> d   1       0.770   1.520   0.554  0.00  0.00     0.002 A 
ENDBRANCH   1  28
TORSDOF 5
