REMARK  6 active torsions:
REMARK  status: ('A' for Active; 'I' for Inactive)
REMARK    1  A    between atoms: C2_2  and  O1_3 
REMARK    2  A    between atoms: O1_3  and  C3_4 
REMARK    3  A    between atoms: C5_6  and  O2_7 
REMARK    4  A    between atoms: C6_8  and  C7_9 
REMARK    5  A    between atoms: C8_10  and  C11_15 
REMARK    6  A    between atoms: C16_20  and  O3_21 
ROOT
ATOM      1  C7  <0> d   1       1.025  -6.025  -1.868  0.00  0.00     0.083 A 
ATOM      2  C8  <0> d   1       0.650  -6.900  -0.828  0.00  0.00     0.024 A 
ATOM      3  C9  <0> d   1       0.859  -8.266  -1.014  0.00  0.00     0.132 A 
ATOM      4  N1  <0> d   1       1.395  -8.686  -2.148  0.00  0.00    -0.253 NA
ATOM      5  C10 <0> d   1       1.733  -7.838  -3.099  0.00  0.00     0.233 A 
ATOM      6  N2  <0> d   1       1.553  -6.539  -2.978  0.00  0.00    -0.240 NA
ENDROOT
BRANCH   1   7
ATOM      7  C6  <0> d   1       0.830  -4.565  -1.733  0.00  0.00     0.027 A 
ATOM      8  C5  <0> d   1       0.182  -3.846  -2.745  0.00  0.00     0.081 A 
ATOM      9  C4  <0> d   1       0.004  -2.480  -2.611  0.00  0.00     0.074 A 
ATOM     10  C3  <0> d   1       0.465  -1.827  -1.478  0.00  0.00     0.071 A 
ATOM     11  C19 <0> d   1       1.113  -2.539  -0.475  0.00  0.00     0.038 A 
ATOM     12  C18 <0> d   1       1.292  -3.900  -0.596  0.00  0.00     0.019 A 
BRANCH   8  13
ATOM     13  O2  <0> d   1      -0.269  -4.486  -3.854  0.00  0.00    -0.360 OA
ATOM     14  H18 <0> d   1       0.377  -4.532  -4.572  0.00  0.00     0.217 HD
ENDBRANCH   8  13
BRANCH  10  15
ATOM     15  O1  <0> d   1       0.288  -0.486  -1.349  0.00  0.00    -0.351 OA
BRANCH  15  16
ATOM     16  C2  <0> d   1       0.793   0.124  -0.160  0.00  0.00     0.171 C 
ATOM     17  C1  <0> d   1       0.503   1.625  -0.194  0.00  0.00     0.034 C 
ENDBRANCH  15  16
ENDBRANCH  10  15
ENDBRANCH   1   7
BRANCH   2  18
ATOM     18  C11 <0> d   1       0.054  -6.382   0.426  0.00  0.00     0.011 A 
ATOM     19  C16 <0> d   1      -1.204  -5.772   0.405  0.00  0.00     0.079 A 
ATOM     20  C15 <0> d   1      -1.758  -5.297   1.583  0.00  0.00     0.037 A 
ATOM     21  C14 <0> d   1      -1.062  -5.415   2.772  0.00  0.00     0.003 A 
ATOM     22  C13 <0> d   1       0.186  -6.013   2.795  0.00  0.00     0.001 A 
ATOM     23  C12 <0> d   1       0.746  -6.497   1.630  0.00  0.00     0.015 A 
BRANCH  19  24
ATOM     24  O3  <0> d   1      -1.885  -5.650  -0.765  0.00  0.00    -0.355 OA
ATOM     25  C17 <0> d   1      -3.164  -5.016  -0.709  0.00  0.00     0.210 C 
ENDBRANCH  19  24
ENDBRANCH   2  18
TORSDOF 6
