REMARK  8 active torsions:
REMARK  status: ('A' for Active; 'I' for Inactive)
REMARK    1  A    between atoms: C2_2  and  N1_3 
REMARK    2  A    between atoms: C4_5  and  C12_14 
REMARK    3  A    between atoms: C9_10  and  O1_12 
REMARK    4  A    between atoms: C18_21  and  O4_35 
REMARK    5  A    between atoms: C19_22  and  C21_25 
REMARK    6  A    between atoms: C21_25  and  N2_26 
REMARK    7  A    between atoms: N2_26  and  C23_28 
REMARK    8  A    between atoms: C23_28  and  C24_29 
ROOT
ATOM      1  C12 <0> d   1      -4.364  -1.773   1.678  0.00  0.00     0.055 C 
ATOM      2  C13 <0> d   1      -4.137  -1.820   3.021  0.00  0.00     0.128 A 
ATOM      3  C14 <0> d   1      -5.062  -2.261   4.004  0.00  0.00     0.218 A 
ATOM      4  O2  <0> d   1      -6.198  -2.668   3.823  0.00  0.00    -0.284 OA
ATOM      5  C15 <0> d   1      -4.354  -2.123   5.289  0.00  0.00     0.051 A 
ATOM      6  C16 <0> d   1      -4.707  -2.385   6.613  0.00  0.00     0.021 A 
ATOM      7  C17 <0> d   1      -3.810  -2.149   7.615  0.00  0.00     0.038 A 
ATOM      8  C18 <0> d   1      -2.545  -1.647   7.320  0.00  0.00     0.076 A 
ATOM      9  C19 <0> d   1      -2.181  -1.382   6.010  0.00  0.00     0.038 A 
ATOM     10  C20 <0> d   1      -3.081  -1.618   4.980  0.00  0.00     0.101 A 
ATOM     11  O3  <0> d   1      -2.990  -1.458   3.642  0.00  0.00    -0.305 OA
ENDROOT
BRANCH   1  12
ATOM     12  C4  <0> d   1      -3.316  -1.300   0.776  0.00  0.00    -0.005 A 
ATOM     13  C3  <0> d   1      -2.055  -0.870   1.127  0.00  0.00     0.103 A 
ATOM     14  N1  <0> d   1      -1.372  -0.511   0.012  0.00  0.00    -0.356 N 
ATOM     15  C6  <0> d   1      -2.156  -0.685  -1.112  0.00  0.00     0.045 A 
ATOM     16  C5  <0> d   1      -3.398  -1.188  -0.693  0.00  0.00     0.005 A 
ATOM     17  C7  <0> d   1      -1.930  -0.464  -2.467  0.00  0.00     0.033 A 
ATOM     18  C10 <0> d   1      -4.392  -1.464  -1.628  0.00  0.00     0.051 A 
ATOM     19  C9  <0> d   1      -4.154  -1.230  -2.970  0.00  0.00     0.069 A 
ATOM     20  C8  <0> d   1      -2.922  -0.735  -3.385  0.00  0.00     0.039 A 
BRANCH  14  21
ATOM     21  C2  <0> d   1       0.002  -0.004   0.002  0.00  0.00     0.124 C 
ATOM     22  C1  <0> d   1      -0.019   1.526   0.010  0.00  0.00     0.027 C 
ENDBRANCH  14  21
BRANCH  19  23
ATOM     23  O1  <0> d   1      -5.122  -1.493  -3.887  0.00  0.00    -0.356 OA
ATOM     24  C11 <0> d   1      -4.806  -1.237  -5.256  0.00  0.00     0.210 C 
ENDBRANCH  19  23
ENDBRANCH   1  12
BRANCH   9  25
ATOM     25  C21 <0> d   1      -0.809  -0.839   5.704  0.00  0.00     0.316 C 
BRANCH  25  26
ATOM     26  N2  <0> d   1       0.120  -1.954   5.478  0.00  0.00     0.092 N 
ATOM     27  C22 <0> d   1      -0.239  -2.701   4.265  0.00  0.00     0.310 C 
BRANCH  26  28
ATOM     28  C23 <0> d   1       1.508  -1.478   5.411  0.00  0.00     0.310 C 
BRANCH  28  29
ATOM     29  C24 <0> d   1       2.446  -2.658   5.426  0.00  0.00    -0.030 A 
ATOM     30  C29 <0> d   1       2.834  -3.246   4.237  0.00  0.00     0.009 A 
ATOM     31  C28 <0> d   1       3.698  -4.326   4.250  0.00  0.00     0.001 A 
ATOM     32  C27 <0> d   1       4.165  -4.822   5.453  0.00  0.00     0.000 A 
ATOM     33  C26 <0> d   1       3.772  -4.237   6.642  0.00  0.00     0.001 A 
ATOM     34  C25 <0> d   1       2.912  -3.155   6.628  0.00  0.00     0.009 A 
ENDBRANCH  28  29
ENDBRANCH  26  28
ENDBRANCH  25  26
ENDBRANCH   9  25
BRANCH   8  35
ATOM     35  O4  <0> d   1      -1.662  -1.415   8.325  0.00  0.00    -0.360 OA
ATOM     36  H28 <0> d   1      -1.098  -2.171   8.535  0.00  0.00     0.217 HD
ENDBRANCH   8  35
TORSDOF 8
