REMARK  9 active torsions:
REMARK  status: ('A' for Active; 'I' for Inactive)
REMARK    1  A    between atoms: C5_5  and  C20_25 
REMARK    2  A    between atoms: C10_11  and  C11_12 
REMARK    3  A    between atoms: C14_15  and  O4_22 
REMARK    4  A    between atoms: C15_16  and  O3_20 
REMARK    5  A    between atoms: C16_17  and  O2_18 
REMARK    6  A    between atoms: C20_25  and  N1_26 
REMARK    7  A    between atoms: N2_29  and  C25_32 
REMARK    8  A    between atoms: C25_32  and  C26_33 
REMARK    9  A    between atoms: C26_33  and  O6_34 
ROOT
ATOM      1  C1  <0> d   1      -1.782  -7.409   0.497  0.00  0.00     0.049 C 
ATOM      2  C2  <0> d   1      -2.528  -6.102   0.417  0.00  0.00    -0.042 A 
ATOM      3  C3  <0> d   1      -3.889  -6.097   0.294  0.00  0.00     0.048 A 
ATOM      4  C4  <0> d   1      -4.580  -4.891   0.221  0.00  0.00     0.118 A 
ATOM      5  C5  <0> d   1      -3.900  -3.685   0.271  0.00  0.00     0.041 A 
ATOM      6  C6  <0> d   1      -2.516  -3.672   0.397  0.00  0.00     0.102 A 
ATOM      7  C7  <0> d   1      -1.830  -4.895   0.470  0.00  0.00     0.057 A 
ATOM      8  C8  <0> d   1      -0.400  -4.561   0.598  0.00  0.00     0.219 A 
ATOM      9  O1  <0> d   1       0.541  -5.332   0.690  0.00  0.00    -0.284 OA
ATOM     10  C9  <0> d   1      -0.361  -3.094   0.588  0.00  0.00     0.128 A 
ATOM     11  C10 <0> d   1       0.753  -2.320   0.683  0.00  0.00     0.055 C 
ATOM     12  O5  <0> d   1      -1.635  -2.651   0.473  0.00  0.00    -0.305 OA
ATOM     13  O7  <0> d   1      -5.932  -4.897   0.098  0.00  0.00    -0.191 OA
ENDROOT
BRANCH  11  14
ATOM     14  C11 <0> d   1       0.627  -0.861   0.746  0.00  0.00     0.003 A 
ATOM     15  C16 <0> d   1       1.705  -0.079   1.196  0.00  0.00     0.114 A 
ATOM     16  C15 <0> d   1       1.577   1.301   1.251  0.00  0.00     0.136 A 
ATOM     17  C14 <0> d   1       0.385   1.904   0.863  0.00  0.00     0.104 A 
ATOM     18  C13 <0> d   1      -0.681   1.130   0.418  0.00  0.00     0.040 A 
ATOM     19  C12 <0> d   1      -0.568  -0.240   0.358  0.00  0.00     0.017 A 
BRANCH  15  20
ATOM     20  O2  <0> d   1       2.867  -0.672   1.574  0.00  0.00    -0.352 OA
ATOM     21  C17 <0> d   1       3.895  -0.773   0.588  0.00  0.00     0.210 C 
ENDBRANCH  15  20
BRANCH  16  22
ATOM     22  O3  <0> d   1       2.616   2.064   1.685  0.00  0.00    -0.351 OA
ATOM     23  C18 <0> d   1       2.730   2.264   3.096  0.00  0.00     0.210 C 
ENDBRANCH  16  22
BRANCH  17  24
ATOM     24  O4  <0> d   1       0.263   3.256   0.918  0.00  0.00    -0.353 OA
ATOM     25  C19 <0> d   1      -0.987   3.811   0.504  0.00  0.00     0.210 C 
ENDBRANCH  17  24
ENDBRANCH  11  14
BRANCH   5  26
ATOM     26  C20 <0> d   1      -4.661  -2.387   0.190  0.00  0.00     0.317 C 
BRANCH  26  27
ATOM     27  N1  <0> d   1      -4.784  -1.978  -1.216  0.00  0.00     0.096 N 
ATOM     28  C24 <0> d   1      -5.716  -0.851  -1.358  0.00  0.00     0.303 C 
ATOM     29  C23 <0> d   1      -5.876  -0.509  -2.841  0.00  0.00     0.302 C 
ATOM     30  N2  <0> d   1      -4.562  -0.176  -3.408  0.00  0.00     0.093 N 
ATOM     31  C22 <0> d   1      -3.630  -1.303  -3.267  0.00  0.00     0.302 C 
ATOM     32  C21 <0> d   1      -3.470  -1.645  -1.784  0.00  0.00     0.303 C 
BRANCH  30  33
ATOM     33  C25 <0> d   1      -4.685   0.233  -4.814  0.00  0.00     0.298 C 
BRANCH  33  34
ATOM     34  C26 <0> d   1      -5.243   1.656  -4.885  0.00  0.00     0.194 C 
BRANCH  34  35
ATOM     35  O6  <0> d   1      -4.276   2.573  -4.368  0.00  0.00    -0.399 OA
ATOM     36  H31 <0> d   1      -4.500   3.649  -4.338  0.00  0.00     0.209 HD
ENDBRANCH  34  35
ENDBRANCH  33  34
ENDBRANCH  30  33
ENDBRANCH  26  27
ENDBRANCH   5  26
TORSDOF 9
