REMARK  9 active torsions:
REMARK  status: ('A' for Active; 'I' for Inactive)
REMARK    1  A    between atoms: C2_2  and  C3_3 
REMARK    2  A    between atoms: C3_3  and  O1_4 
REMARK    3  A    between atoms: O1_4  and  C4_5 
REMARK    4  A    between atoms: C4_5  and  C5_7 
REMARK    5  A    between atoms: C8_10  and  O3_13 
REMARK    6  A    between atoms: O3_13  and  C11_14 
REMARK    7  A    between atoms: C13_19  and  C14_20 
REMARK    8  A    between atoms: C17_23  and  O5_27 
REMARK    9  A    between atoms: C19_25  and  O4_26 
ROOT
ATOM      1  C11 <0> d   1      -4.049  -8.780  -0.014  0.00  0.00     0.131 A 
ATOM      2  C12 <0> d   1      -4.790  -9.141   1.116  0.00  0.00     0.087 A 
ATOM      3  N1  <0> d   1      -5.915  -9.682   0.724  0.00  0.00    -0.176 NA
ATOM      4  N2  <0> d   1      -5.948  -9.695  -0.676  0.00  0.00    -0.274 N 
ATOM      5  H1  <0> d   1      -6.667 -10.040  -1.228  0.00  0.00     0.189 HD
ATOM      6  C13 <0> d   1      -4.789  -9.128  -1.126  0.00  0.00     0.099 A 
ATOM      7  C21 <0> d   1      -4.364  -8.939   2.547  0.00  0.00     0.075 C 
ENDROOT
BRANCH   1   8
ATOM      8  O3  <0> d   1      -2.823  -8.188  -0.017  0.00  0.00    -0.306 OA
BRANCH   8   9
ATOM      9  C8  <0> d   1      -2.771  -6.833  -0.009  0.00  0.00     0.076 A 
ATOM     10  C7  <0> d   1      -1.539  -6.186  -0.011  0.00  0.00     0.038 A 
ATOM     11  C6  <0> d   1      -1.482  -4.811  -0.004  0.00  0.00     0.020 A 
ATOM     12  C5  <0> d   1      -2.663  -4.064   0.006  0.00  0.00     0.039 A 
ATOM     13  C10 <0> d   1      -3.899  -4.717   0.014  0.00  0.00     0.020 A 
ATOM     14  C9  <0> d   1      -3.948  -6.093   0.001  0.00  0.00     0.038 A 
BRANCH  12  15
ATOM     15  C4  <0> d   1      -2.606  -2.591   0.013  0.00  0.00     0.293 C 
ATOM     16  O2  <0> d   1      -3.634  -1.943   0.026  0.00  0.00    -0.259 OA
BRANCH  15  17
ATOM     17  O1  <0> d   1      -1.414  -1.962   0.005  0.00  0.00    -0.318 OA
BRANCH  17  18
ATOM     18  C3  <0> d   1      -1.433  -0.534   0.013  0.00  0.00     0.178 C 
BRANCH  18  19
ATOM     19  C2  <0> d   1       0.002  -0.004   0.002  0.00  0.00     0.022 C 
ATOM     20  C1  <0> d   1      -0.019   1.526   0.010  0.00  0.00     0.007 C 
ENDBRANCH  18  19
ENDBRANCH  17  18
ENDBRANCH  15  17
ENDBRANCH  12  15
ENDBRANCH   8   9
ENDBRANCH   1   8
BRANCH   6  21
ATOM     21  C14 <0> d   1      -4.399  -8.928  -2.538  0.00  0.00     0.028 A 
ATOM     22  C19 <0> d   1      -3.295  -9.610  -3.066  0.00  0.00     0.081 A 
ATOM     23  C18 <0> d   1      -2.939  -9.423  -4.390  0.00  0.00     0.074 A 
ATOM     24  C17 <0> d   1      -3.668  -8.553  -5.188  0.00  0.00     0.070 A 
ATOM     25  C16 <0> d   1      -4.759  -7.871  -4.665  0.00  0.00     0.038 A 
ATOM     26  C15 <0> d   1      -5.126  -8.055  -3.348  0.00  0.00     0.019 A 
BRANCH  22  27
ATOM     27  O4  <0> d   1      -2.580 -10.458  -2.281  0.00  0.00    -0.360 OA
ATOM     28  H16 <0> d   1      -2.899 -11.370  -2.294  0.00  0.00     0.217 HD
ENDBRANCH  22  27
BRANCH  24  29
ATOM     29  O5  <0> d   1      -3.313  -8.367  -6.486  0.00  0.00    -0.356 OA
ATOM     30  C20 <0> d   1      -4.106  -7.457  -7.252  0.00  0.00     0.210 C 
ENDBRANCH  24  29
ENDBRANCH   6  21
TORSDOF 9
