REMARK  4 active torsions:
REMARK  status: ('A' for Active; 'I' for Inactive)
REMARK    1  A    between atoms: C4_4  and  C7_7 
REMARK    2  A    between atoms: C12_12  and  O1_13 
REMARK    3  A    between atoms: C13_14  and  C16_19 
REMARK    4  A    between atoms: C16_19  and  N1_20 
ROOT
ATOM      1  C7  <0> d   1      -3.551  -1.019   3.650  0.00  0.00     0.010 A 
ATOM      2  C8  <0> d   1      -2.324  -1.327   4.226  0.00  0.00     0.053 A 
ATOM      3  C9  <0> d   1      -1.157  -1.162   3.498  0.00  0.00     0.091 A 
ATOM      4  C10 <0> d   1      -1.222  -0.682   2.176  0.00  0.00     0.009 A 
ATOM      5  C11 <0> d   1      -2.459  -0.374   1.600  0.00  0.00     0.052 A 
ATOM      6  C12 <0> d   1      -3.615  -0.542   2.332  0.00  0.00     0.077 A 
ATOM      7  C13 <0> d   1       0.022  -0.514   1.420  0.00  0.00    -0.021 A 
ATOM      8  C14 <0> d   1       1.192  -0.835   2.029  0.00  0.00     0.092 A 
ATOM      9  C15 <0> d   1       1.185  -1.306   3.359  0.00  0.00     0.288 A 
ATOM     10  O2  <0> d   1       2.242  -1.586   3.895  0.00  0.00    -0.260 OA
ATOM     11  O3  <0> d   1       0.043  -1.458   4.047  0.00  0.00    -0.275 OA
ENDROOT
BRANCH   7  12
ATOM     12  C16 <0> d   1       0.002  -0.004   0.002  0.00  0.00     0.168 C 
BRANCH  12  13
ATOM     13  N1  <0> d   1      -0.018   1.461   0.010  0.00  0.00    -0.347 N 
ATOM     14  C19 <0> d   1       1.058   2.277   0.004  0.00  0.00     0.182 A 
ATOM     15  N2  <0> d   1       0.644   3.513   0.015  0.00  0.00    -0.361 N 
ATOM     16  C18 <0> d   1      -0.696   3.533   0.028  0.00  0.00     0.106 A 
ATOM     17  H15 <0> d   1       1.250   4.343   0.013  0.00  0.00     0.166 HD
ATOM     18  C17 <0> d   1      -1.131   2.258   0.019  0.00  0.00     0.109 A 
ENDBRANCH  12  13
ENDBRANCH   7  12
BRANCH   6  19
ATOM     19  O1  <0> d   1      -4.819  -0.244   1.776  0.00  0.00    -0.360 OA
ATOM     20  H8  <0> d   1      -5.236  -0.987   1.318  0.00  0.00     0.217 HD
ENDBRANCH   6  19
BRANCH   1  21
ATOM     21  C4  <0> d   1      -4.798  -1.196   4.431  0.00  0.00    -0.023 A 
ATOM     22  C3  <0> d   1      -5.730  -0.162   4.506  0.00  0.00     0.012 A 
ATOM     23  C2  <0> d   1      -6.890  -0.333   5.235  0.00  0.00     0.001 A 
ATOM     24  C1  <0> d   1      -7.128  -1.528   5.890  0.00  0.00     0.000 A 
ATOM     25  C6  <0> d   1      -6.206  -2.557   5.820  0.00  0.00     0.001 A 
ATOM     26  C5  <0> d   1      -5.046  -2.400   5.090  0.00  0.00     0.012 A 
ENDBRANCH   1  21
TORSDOF 4
