REMARK  6 active torsions:
REMARK  status: ('A' for Active; 'I' for Inactive)
REMARK    1  A    between atoms: C2_2  and  N1_3 
REMARK    2  A    between atoms: N1_3  and  C3_4 
REMARK    3  A    between atoms: N1_3  and  C5_6 
REMARK    4  A    between atoms: C5_6  and  C6_7 
REMARK    5  A    between atoms: C13_15  and  C14_16 
REMARK    6  A    between atoms: C15_17  and  C16_18 
ROOT
ATOM      1  C6  <0> d   1      -2.938  -2.460   0.314  0.00  0.00     0.039 A 
ATOM      2  C7  <0> d   1      -3.661  -2.470   1.496  0.00  0.00     0.118 A 
ATOM      3  C8  <0> d   1      -5.003  -2.840   1.502  0.00  0.00     0.041 A 
ATOM      4  C9  <0> d   1      -5.622  -3.199   0.337  0.00  0.00     0.021 A 
ATOM      5  C10 <0> d   1      -4.906  -3.193  -0.861  0.00  0.00     0.051 A 
ATOM      6  C11 <0> d   1      -3.554  -2.816  -0.880  0.00  0.00     0.101 A 
ATOM      7  O1  <0> d   1      -3.082  -2.882  -2.144  0.00  0.00    -0.305 OA
ATOM      8  C12 <0> d   1      -4.036  -3.281  -3.017  0.00  0.00     0.127 A 
ATOM      9  C13 <0> d   1      -3.879  -3.447  -4.362  0.00  0.00     0.041 C 
ATOM     10  C22 <0> d   1      -5.267  -3.516  -2.253  0.00  0.00     0.218 A 
ATOM     11  O2  <0> d   1      -6.349  -3.885  -2.677  0.00  0.00    -0.284 OA
ATOM     12  O3  <0> d   1      -3.055  -2.117   2.658  0.00  0.00    -0.191 OA
ENDROOT
BRANCH   9  13
ATOM     13  C14 <0> d   1      -2.629  -3.194  -4.962  0.00  0.00     0.004 C 
ATOM     14  C15 <0> d   1      -2.473  -3.359  -6.297  0.00  0.00     0.011 C 
BRANCH  14  15
ATOM     15  C16 <0> d   1      -1.169  -3.095  -6.923  0.00  0.00    -0.036 A 
ATOM     16  C21 <0> d   1      -1.004  -3.263  -8.302  0.00  0.00     0.011 A 
ATOM     17  C20 <0> d   1       0.220  -3.007  -8.882  0.00  0.00     0.001 A 
ATOM     18  C19 <0> d   1       1.288  -2.597  -8.102  0.00  0.00     0.000 A 
ATOM     19  C18 <0> d   1       1.134  -2.434  -6.736  0.00  0.00     0.001 A 
ATOM     20  C17 <0> d   1      -0.085  -2.679  -6.141  0.00  0.00     0.011 A 
ENDBRANCH  14  15
ENDBRANCH   9  13
BRANCH   1  21
ATOM     21  C5  <0> d   1      -1.486  -2.057   0.322  0.00  0.00     0.279 C 
BRANCH  21  22
ATOM     22  N1  <0> d   1      -1.371  -0.635  -0.031  0.00  0.00    -0.068 N 
ATOM     23  H23 <0> d   1      -1.831  -0.469  -0.913  0.00  0.00     0.280 HD
BRANCH  22  24
ATOM     24  C2  <0> d   1      -2.004   0.181   1.013  0.00  0.00     0.231 C 
ATOM     25  C1  <0> d   1      -1.995   1.651   0.587  0.00  0.00     0.034 C 
ENDBRANCH  22  24
BRANCH  22  26
ATOM     26  C3  <0> d   1       0.048  -0.272  -0.143  0.00  0.00     0.231 C 
ATOM     27  C4  <0> d   1       0.669  -1.003  -1.335  0.00  0.00     0.034 C 
ENDBRANCH  22  26
ENDBRANCH  21  22
ENDBRANCH   1  21
TORSDOF 6
