REMARK  6 active torsions:
REMARK  status: ('A' for Active; 'I' for Inactive)
REMARK    1  A    between atoms: C8_8  and  C9_10 
REMARK    2  A    between atoms: C16_18  and  C18_21 
REMARK    3  A    between atoms: C18_21  and  N1_22 
REMARK    4  A    between atoms: N2_25  and  C23_28 
REMARK    5  A    between atoms: C23_28  and  C24_29 
REMARK    6  A    between atoms: C24_29  and  O4_30 
ROOT
ATOM      1  C9  <0> d   1       3.726  -3.286  -0.051  0.00  0.00     0.078 C 
ATOM      2  C10 <0> d   1       5.086  -3.209  -0.065  0.00  0.00     0.129 A 
ATOM      3  C11 <0> d   1       6.018  -4.343  -0.085  0.00  0.00     0.218 A 
ATOM      4  O2  <0> d   1       5.747  -5.532  -0.094  0.00  0.00    -0.284 OA
ATOM      5  C12 <0> d   1       7.356  -3.723  -0.093  0.00  0.00     0.051 A 
ATOM      6  C13 <0> d   1       8.650  -4.244  -0.112  0.00  0.00     0.021 A 
ATOM      7  C14 <0> d   1       9.724  -3.400  -0.115  0.00  0.00     0.041 A 
ATOM      8  C15 <0> d   1       9.530  -2.021  -0.100  0.00  0.00     0.118 A 
ATOM      9  C16 <0> d   1       8.251  -1.489  -0.081  0.00  0.00     0.039 A 
ATOM     10  C17 <0> d   1       7.147  -2.334  -0.078  0.00  0.00     0.101 A 
ATOM     11  O3  <0> d   1       5.822  -2.073  -0.067  0.00  0.00    -0.305 OA
ATOM     12  O5  <0> d   1      10.604  -1.190  -0.102  0.00  0.00    -0.191 OA
ENDROOT
BRANCH   9  13
ATOM     13  C18 <0> d   1       8.056   0.005  -0.064  0.00  0.00     0.279 C 
BRANCH  13  14
ATOM     14  N1  <0> d   1       7.978   0.504  -1.444  0.00  0.00    -0.064 N 
ATOM     15  C22 <0> d   1       7.669   1.940  -1.428  0.00  0.00     0.265 C 
ATOM     16  C21 <0> d   1       7.569   2.456  -2.865  0.00  0.00     0.300 C 
ATOM     17  N2  <0> d   1       8.844   2.220  -3.557  0.00  0.00     0.093 N 
ATOM     18  C20 <0> d   1       9.179   0.789  -3.559  0.00  0.00     0.300 C 
ATOM     19  C19 <0> d   1       9.266   0.286  -2.116  0.00  0.00     0.265 C 
ATOM     20  H24 <0> d   1       7.252   0.009  -1.940  0.00  0.00     0.280 HD
BRANCH  17  21
ATOM     21  C23 <0> d   1       8.808   2.754  -4.925  0.00  0.00     0.298 C 
BRANCH  21  22
ATOM     22  C24 <0> d   1       8.705   4.280  -4.874  0.00  0.00     0.194 C 
BRANCH  22  23
ATOM     23  O4  <0> d   1       9.893   4.818  -4.290  0.00  0.00    -0.399 OA
ATOM     24  H23 <0> d   1       9.898   5.783  -4.226  0.00  0.00     0.209 HD
ENDBRANCH  22  23
ENDBRANCH  21  22
ENDBRANCH  17  21
ENDBRANCH  13  14
ENDBRANCH   9  13
BRANCH   1  25
ATOM     25  C8  <0> d   1       2.950  -2.102  -0.038  0.00  0.00     0.079 A 
ATOM     26  C7  <0> d   1       1.587  -2.053  -0.024  0.00  0.00     0.051 A 
ATOM     27  C5  <0> d   1       1.226  -0.682  -0.013  0.00  0.00     0.000 A 
ATOM     28  C4  <0> d   1       2.431   0.046  -0.021  0.00  0.00     0.086 A 
ATOM     29  C6  <0> d   1       0.002  -0.004   0.002  0.00  0.00     0.014 A 
ATOM     30  C3  <0> d   1       2.387   1.434  -0.013  0.00  0.00     0.038 A 
ATOM     31  O1  <0> d   1       3.444  -0.845  -0.036  0.00  0.00    -0.310 OA
ATOM     32  C2  <0> d   1       1.170   2.082   0.002  0.00  0.00     0.003 A 
ATOM     33  C1  <0> d   1      -0.016   1.362   0.009  0.00  0.00     0.001 A 
ENDBRANCH   1  25
TORSDOF 6
