REMARK  6 active torsions:
REMARK  status: ('A' for Active; 'I' for Inactive)
REMARK    1  A    between atoms: C2_2  and  O1_3 
REMARK    2  A    between atoms: O1_3  and  C3_4 
REMARK    3  A    between atoms: C3_4  and  C4_6 
REMARK    4  A    between atoms: N1_9  and  C9_12 
REMARK    5  A    between atoms: C9_12  and  C10_13 
REMARK    6  A    between atoms: C17_21  and  C18_22 
ROOT
ATOM      1  C10 <0> d   1      -5.931  -6.230  -1.552  0.00  0.00     0.039 A 
ATOM      2  C11 <0> d   1      -6.068  -6.781  -2.816  0.00  0.00     0.118 A 
ATOM      3  C12 <0> d   1      -6.285  -8.147  -2.973  0.00  0.00     0.048 A 
ATOM      4  C13 <0> d   1      -6.366  -8.960  -1.877  0.00  0.00    -0.042 A 
ATOM      5  C14 <0> d   1      -6.230  -8.419  -0.599  0.00  0.00     0.057 A 
ATOM      6  C15 <0> d   1      -6.006  -7.043  -0.428  0.00  0.00     0.102 A 
ATOM      7  O3  <0> d   1      -5.903  -6.758   0.889  0.00  0.00    -0.305 OA
ATOM      8  C16 <0> d   1      -6.038  -7.865   1.656  0.00  0.00     0.128 A 
ATOM      9  C17 <0> d   1      -5.985  -7.914   3.010  0.00  0.00     0.053 C 
ATOM     10  C24 <0> d   1      -6.266  -9.005   0.753  0.00  0.00     0.219 A 
ATOM     11  O4  <0> d   1      -6.434 -10.174   1.056  0.00  0.00    -0.284 OA
ATOM     12  C25 <0> d   1      -6.601 -10.438  -2.050  0.00  0.00     0.049 C 
ATOM     13  O5  <0> d   1      -5.989  -5.982  -3.910  0.00  0.00    -0.191 OA
ENDROOT
BRANCH   1  14
ATOM     14  C9  <0> d   1      -5.696  -4.750  -1.397  0.00  0.00     0.279 C 
BRANCH  14  15
ATOM     15  N1  <0> d   1      -4.253  -4.479  -1.408  0.00  0.00    -0.067 N 
ATOM     16  C6  <0> d   1      -4.027  -3.029  -1.378  0.00  0.00     0.236 C 
ATOM     17  C5  <0> d   1      -2.528  -2.740  -1.472  0.00  0.00     0.042 C 
ATOM     18  C4  <0> d   1      -1.812  -3.394  -0.286  0.00  0.00     0.088 C 
ATOM     19  C8  <0> d   1      -2.115  -4.895  -0.285  0.00  0.00     0.042 C 
ATOM     20  C7  <0> d   1      -3.630  -5.105  -0.236  0.00  0.00     0.236 C 
ATOM     21  H26 <0> d   1      -3.847  -4.864  -2.248  0.00  0.00     0.280 HD
BRANCH  18  22
ATOM     22  C3  <0> d   1      -0.326  -3.179  -0.414  0.00  0.00     0.263 C 
ATOM     23  O2  <0> d   1       0.417  -4.129  -0.496  0.00  0.00    -0.265 OA
BRANCH  22  24
ATOM     24  O1  <0> d   1       0.173  -1.933  -0.436  0.00  0.00    -0.322 OA
BRANCH  24  25
ATOM     25  C2  <0> d   1       1.591  -1.804  -0.560  0.00  0.00     0.174 C 
ATOM     26  C1  <0> d   1       1.969  -0.322  -0.568  0.00  0.00     0.034 C 
ENDBRANCH  24  25
ENDBRANCH  22  24
ENDBRANCH  18  22
ENDBRANCH  14  15
ENDBRANCH   1  14
BRANCH   9  27
ATOM     27  C18 <0> d   1      -5.978  -9.211   3.700  0.00  0.00    -0.033 A 
ATOM     28  C23 <0> d   1      -6.709  -9.384   4.881  0.00  0.00     0.014 A 
ATOM     29  C22 <0> d   1      -6.703 -10.605   5.519  0.00  0.00     0.043 A 
ATOM     30  C21 <0> d   1      -5.965 -11.658   4.999  0.00  0.00     0.116 A 
ATOM     31  C20 <0> d   1      -5.234 -11.493   3.832  0.00  0.00     0.043 A 
ATOM     32  F1  <0> d   1      -5.958 -12.851   5.633  0.00  0.00    -0.206 F 
ATOM     33  C19 <0> d   1      -5.236 -10.279   3.181  0.00  0.00     0.014 A 
ENDBRANCH   9  27
TORSDOF 6
