REMARK  8 active torsions:
REMARK  status: ('A' for Active; 'I' for Inactive)
REMARK    1  A    between atoms: O1_2  and  C2_3 
REMARK    2  A    between atoms: C7_8  and  C8_9 
REMARK    3  A    between atoms: C14_16  and  O5_30 
REMARK    4  A    between atoms: C15_17  and  C17_20 
REMARK    5  A    between atoms: C17_20  and  N1_21 
REMARK    6  A    between atoms: N2_24  and  C22_27 
REMARK    7  A    between atoms: C22_27  and  C23_28 
REMARK    8  A    between atoms: C23_28  and  O4_29 
ROOT
ATOM      1  C8  <0> d   1      -2.542   5.040  -0.344  0.00  0.00     0.055 C 
ATOM      2  C9  <0> d   1      -1.615   4.281   0.295  0.00  0.00     0.128 A 
ATOM      3  C10 <0> d   1      -0.290   4.729   0.749  0.00  0.00     0.218 A 
ATOM      4  O2  <0> d   1       0.202   5.839   0.635  0.00  0.00    -0.284 OA
ATOM      5  C11 <0> d   1       0.310   3.536   1.373  0.00  0.00     0.051 A 
ATOM      6  C12 <0> d   1       1.539   3.297   1.990  0.00  0.00     0.021 A 
ATOM      7  C13 <0> d   1       1.821   2.057   2.487  0.00  0.00     0.038 A 
ATOM      8  C14 <0> d   1       0.887   1.030   2.379  0.00  0.00     0.076 A 
ATOM      9  C15 <0> d   1      -0.337   1.253   1.770  0.00  0.00     0.038 A 
ATOM     10  C16 <0> d   1      -0.641   2.509   1.259  0.00  0.00     0.101 A 
ATOM     11  O3  <0> d   1      -1.740   2.974   0.626  0.00  0.00    -0.305 OA
ENDROOT
BRANCH   9  12
ATOM     12  C17 <0> d   1      -1.339   0.133   1.660  0.00  0.00     0.317 C 
BRANCH  12  13
ATOM     13  N1  <0> d   1      -1.123  -0.597   0.404  0.00  0.00     0.096 N 
ATOM     14  C21 <0> d   1      -1.917  -1.833   0.369  0.00  0.00     0.303 C 
ATOM     15  C20 <0> d   1      -1.603  -2.601  -0.917  0.00  0.00     0.302 C 
ATOM     16  N2  <0> d   1      -1.905  -1.752  -2.078  0.00  0.00     0.093 N 
ATOM     17  C19 <0> d   1      -1.111  -0.516  -2.043  0.00  0.00     0.302 C 
ATOM     18  C18 <0> d   1      -1.424   0.252  -0.757  0.00  0.00     0.303 C 
BRANCH  16  19
ATOM     19  C22 <0> d   1      -1.688  -2.482  -3.335  0.00  0.00     0.298 C 
BRANCH  19  20
ATOM     20  C23 <0> d   1      -2.831  -3.475  -3.551  0.00  0.00     0.194 C 
BRANCH  20  21
ATOM     21  O4  <0> d   1      -4.062  -2.762  -3.688  0.00  0.00    -0.399 OA
ATOM     22  H25 <0> d   1      -5.001  -3.312  -3.852  0.00  0.00     0.209 HD
ENDBRANCH  20  21
ENDBRANCH  19  20
ENDBRANCH  16  19
ENDBRANCH  12  13
ENDBRANCH   9  12
BRANCH   8  23
ATOM     23  O5  <0> d   1       1.177  -0.199   2.876  0.00  0.00    -0.360 OA
ATOM     24  H26 <0> d   1       0.442  -1.013   2.794  0.00  0.00     0.217 HD
ENDBRANCH   8  23
BRANCH   1  25
ATOM     25  C7  <0> d   1      -3.875   4.490  -0.621  0.00  0.00    -0.000 A 
ATOM     26  C2  <0> d   1      -4.940   5.347  -0.942  0.00  0.00     0.078 A 
ATOM     27  C3  <0> d   1      -6.194   4.816  -1.201  0.00  0.00     0.037 A 
ATOM     28  C4  <0> d   1      -6.393   3.450  -1.144  0.00  0.00     0.003 A 
ATOM     29  C5  <0> d   1      -5.345   2.600  -0.827  0.00  0.00     0.001 A 
ATOM     30  C6  <0> d   1      -4.091   3.107  -0.572  0.00  0.00     0.014 A 
BRANCH  26  31
ATOM     31  O1  <0> d   1      -4.744   6.689  -0.998  0.00  0.00    -0.355 OA
ATOM     32  C1  <0> d   1      -5.874   7.497  -1.331  0.00  0.00     0.210 C 
ENDBRANCH  26  31
ENDBRANCH   1  25
TORSDOF 8
