REMARK  4 active torsions:
REMARK  status: ('A' for Active; 'I' for Inactive)
REMARK    1  A    between atoms: C4_4  and  O4_30 
REMARK    2  A    between atoms: C5_5  and  C19_22 
REMARK    3  A    between atoms: C10_11  and  C11_12 
REMARK    4  A    between atoms: C19_22  and  N1_23 
ROOT
ATOM      1  C1  <0> d   1      -0.018   1.503   0.010  0.00  0.00     0.049 C 
ATOM      2  C2  <0> d   1       0.002  -0.004   0.002  0.00  0.00    -0.042 A 
ATOM      3  C3  <0> d   1       0.006  -0.682  -1.185  0.00  0.00     0.045 A 
ATOM      4  C4  <0> d   1       0.025  -2.074  -1.195  0.00  0.00     0.077 A 
ATOM      5  C5  <0> d   1       0.040  -2.787  -0.007  0.00  0.00     0.038 A 
ATOM      6  C6  <0> d   1       0.037  -2.114   1.208  0.00  0.00     0.102 A 
ATOM      7  C7  <0> d   1       0.023  -0.709   1.206  0.00  0.00     0.057 A 
ATOM      8  C8  <0> d   1       0.030  -0.292   2.619  0.00  0.00     0.219 A 
ATOM      9  O1  <0> d   1       0.018   0.845   3.062  0.00  0.00    -0.284 OA
ATOM     10  C9  <0> d   1       0.055  -1.550   3.376  0.00  0.00     0.129 A 
ATOM     11  C10 <0> d   1       0.069  -1.673   4.732  0.00  0.00     0.078 C 
ATOM     12  O3  <0> d   1       0.049  -2.566   2.481  0.00  0.00    -0.305 OA
ENDROOT
BRANCH  11  13
ATOM     13  C11 <0> d   1       0.093  -2.958   5.326  0.00  0.00     0.079 A 
ATOM     14  O2  <0> d   1       0.102  -4.129   4.653  0.00  0.00    -0.310 OA
ATOM     15  C18 <0> d   1       0.128  -5.158   5.525  0.00  0.00     0.086 A 
ATOM     16  C13 <0> d   1       0.126  -4.615   6.823  0.00  0.00     0.000 A 
ATOM     17  C17 <0> d   1       0.149  -6.538   5.365  0.00  0.00     0.038 A 
ATOM     18  C12 <0> d   1       0.103  -3.206   6.667  0.00  0.00     0.051 A 
ATOM     19  C14 <0> d   1       0.144  -5.465   7.935  0.00  0.00     0.014 A 
ATOM     20  C15 <0> d   1       0.165  -6.818   7.753  0.00  0.00     0.001 A 
ATOM     21  C16 <0> d   1       0.167  -7.357   6.473  0.00  0.00     0.003 A 
ENDBRANCH  11  13
BRANCH   5  22
ATOM     22  C19 <0> d   1       0.060  -4.294  -0.033  0.00  0.00     0.317 C 
BRANCH  22  23
ATOM     23  N1  <0> d   1       1.452  -4.765  -0.048  0.00  0.00     0.096 N 
ATOM     24  C23 <0> d   1       1.516  -6.209  -0.312  0.00  0.00     0.303 C 
ATOM     25  C22 <0> d   1       2.980  -6.645  -0.398  0.00  0.00     0.302 C 
ATOM     26  N2  <0> d   1       3.663  -6.311   0.860  0.00  0.00     0.087 N 
ATOM     27  C21 <0> d   1       3.599  -4.867   1.123  0.00  0.00     0.302 C 
ATOM     28  C24 <0> d   1       5.054  -6.782   0.844  0.00  0.00     0.310 C 
ATOM     29  C20 <0> d   1       2.134  -4.431   1.210  0.00  0.00     0.303 C 
ENDBRANCH  22  23
ENDBRANCH   5  22
BRANCH   4  30
ATOM     30  O4  <0> d   1       0.029  -2.738  -2.378  0.00  0.00    -0.360 OA
ATOM     31  H24 <0> d   1       0.913  -2.918  -2.726  0.00  0.00     0.217 HD
ENDBRANCH   4  30
TORSDOF 4
