REMARK  7 active torsions:
REMARK  status: ('A' for Active; 'I' for Inactive)
REMARK    1  A    between atoms: C2_2  and  N1_3 
REMARK    2  A    between atoms: N2_6  and  C7_9 
REMARK    3  A    between atoms: C7_9  and  C8_10 
REMARK    4  A    between atoms: C8_10  and  O1_11 
REMARK    5  A    between atoms: O1_11  and  C9_12 
REMARK    6  A    between atoms: C14_18  and  C19_24 
REMARK    7  A    between atoms: C22_27  and  O4_30 
ROOT
ATOM      1  C9  <0> d   1       1.915  -5.878  -4.108  0.00  0.00     0.077 A 
ATOM      2  C10 <0> d   1       3.050  -6.675  -3.976  0.00  0.00     0.038 A 
ATOM      3  C11 <0> d   1       2.946  -8.036  -4.023  0.00  0.00     0.021 A 
ATOM      4  C12 <0> d   1       1.695  -8.627  -4.205  0.00  0.00     0.049 A 
ATOM      5  C13 <0> d   1       1.539 -10.092  -4.277  0.00  0.00     0.197 C 
ATOM      6  O2  <0> d   1       2.436 -10.854  -3.960  0.00  0.00    -0.286 OA
ATOM      7  C14 <0> d   1       0.231 -10.579  -4.755  0.00  0.00     0.048 C 
ATOM      8  C15 <0> d   1      -0.794  -9.690  -4.838  0.00  0.00     0.159 C 
ATOM      9  O3  <0> d   1      -0.666  -8.407  -4.492  0.00  0.00    -0.320 OA
ATOM     10  C16 <0> d   1       0.542  -7.833  -4.332  0.00  0.00     0.097 A 
ATOM     11  C17 <0> d   1       0.666  -6.450  -4.280  0.00  0.00     0.006 A 
ATOM     12  C18 <0> d   1      -0.553  -5.576  -4.416  0.00  0.00     0.054 C 
ENDROOT
BRANCH   1  13
ATOM     13  O1  <0> d   1       2.034  -4.526  -4.063  0.00  0.00    -0.349 OA
BRANCH  13  14
ATOM     14  C8  <0> d   1       3.349  -3.997  -3.884  0.00  0.00     0.203 C 
BRANCH  14  15
ATOM     15  C7  <0> d   1       3.284  -2.468  -3.858  0.00  0.00     0.261 C 
BRANCH  15  16
ATOM     16  N2  <0> d   1       2.497  -2.031  -2.698  0.00  0.00    -0.066 N 
ATOM     17  C4  <0> d   1       3.207  -2.387  -1.462  0.00  0.00     0.265 C 
ATOM     18  C3  <0> d   1       2.378  -1.949  -0.253  0.00  0.00     0.300 C 
ATOM     19  N1  <0> d   1       2.161  -0.497  -0.312  0.00  0.00     0.091 N 
ATOM     20  C6  <0> d   1       1.473  -0.122  -1.555  0.00  0.00     0.300 C 
ATOM     21  C5  <0> d   1       2.309  -0.575  -2.754  0.00  0.00     0.265 C 
ATOM     22  H31 <0> d   1       1.597  -2.487  -2.712  0.00  0.00     0.280 HD
BRANCH  19  23
ATOM     23  C2  <0> d   1       1.416  -0.028   0.864  0.00  0.00     0.268 C 
ATOM     24  C1  <0> d   1       2.274  -0.211   2.118  0.00  0.00     0.037 C 
ENDBRANCH  19  23
ENDBRANCH  15  16
ENDBRANCH  14  15
ENDBRANCH  13  14
ENDBRANCH   1  13
BRANCH   7  25
ATOM     25  C19 <0> d   1       0.040 -12.000  -5.136  0.00  0.00    -0.020 A 
ATOM     26  C24 <0> d   1      -0.250 -12.336  -6.457  0.00  0.00     0.015 A 
ATOM     27  C23 <0> d   1      -0.421 -13.658  -6.809  0.00  0.00     0.037 A 
ATOM     28  C22 <0> d   1      -0.317 -14.653  -5.847  0.00  0.00     0.068 A 
ATOM     29  C21 <0> d   1      -0.035 -14.321  -4.529  0.00  0.00     0.037 A 
ATOM     30  C20 <0> d   1       0.144 -13.001  -4.172  0.00  0.00     0.015 A 
BRANCH  28  31
ATOM     31  O4  <0> d   1      -0.492 -15.955  -6.196  0.00  0.00    -0.356 OA
ATOM     32  C25 <0> d   1      -0.780 -16.226  -7.569  0.00  0.00     0.210 C 
ENDBRANCH  28  31
ENDBRANCH   7  25
TORSDOF 7
