REMARK  7 active torsions:
REMARK  status: ('A' for Active; 'I' for Inactive)
REMARK    1  A    between atoms: C2_2  and  O1_3 
REMARK    2  A    between atoms: O1_3  and  C3_4 
REMARK    3  A    between atoms: C8_9  and  O2_10 
REMARK    4  A    between atoms: O2_10  and  C9_11 
REMARK    5  A    between atoms: C16_20  and  O5_30 
REMARK    6  A    between atoms: C17_21  and  C18_22 
REMARK    7  A    between atoms: C18_22  and  N1_23 
ROOT
ATOM      1  C9  <0> d   1       2.695  -2.005   4.414  0.00  0.00     0.156 A 
ATOM      2  C10 <0> d   1       2.896  -3.330   4.557  0.00  0.00     0.087 A 
ATOM      3  O3  <0> d   1       3.568  -3.853   5.591  0.00  0.00    -0.311 OA
ATOM      4  C11 <0> d   1       4.096  -3.091   6.570  0.00  0.00     0.101 A 
ATOM      5  C12 <0> d   1       3.948  -1.693   6.524  0.00  0.00     0.052 A 
ATOM      6  C13 <0> d   1       3.215  -1.106   5.389  0.00  0.00     0.221 A 
ATOM      7  O4  <0> d   1       3.057   0.099   5.290  0.00  0.00    -0.284 OA
ATOM      8  C14 <0> d   1       4.490  -0.894   7.531  0.00  0.00     0.021 A 
ATOM      9  C15 <0> d   1       5.169  -1.475   8.565  0.00  0.00     0.038 A 
ATOM     10  C16 <0> d   1       5.321  -2.859   8.618  0.00  0.00     0.076 A 
ATOM     11  C17 <0> d   1       4.788  -3.666   7.627  0.00  0.00     0.038 A 
ATOM     12  C24 <0> d   1       2.341  -4.261   3.510  0.00  0.00     0.080 C 
ENDROOT
BRANCH   1  13
ATOM     13  O2  <0> d   1       2.004  -1.528   3.342  0.00  0.00    -0.301 OA
BRANCH  13  14
ATOM     14  C8  <0> d   1       0.798  -0.944   3.569  0.00  0.00     0.109 A 
ATOM     15  C3  <0> d   1       0.111  -0.334   2.524  0.00  0.00     0.102 A 
ATOM     16  C4  <0> d   1      -1.121   0.256   2.759  0.00  0.00     0.039 A 
ATOM     17  C5  <0> d   1      -1.663   0.241   4.031  0.00  0.00     0.003 A 
ATOM     18  C6  <0> d   1      -0.978  -0.360   5.070  0.00  0.00     0.003 A 
ATOM     19  C7  <0> d   1       0.251  -0.950   4.843  0.00  0.00     0.040 A 
BRANCH  15  20
ATOM     20  O1  <0> d   1       0.645  -0.321   1.273  0.00  0.00    -0.349 OA
BRANCH  20  21
ATOM     21  C2  <0> d   1      -0.116   0.324   0.249  0.00  0.00     0.171 C 
ATOM     22  C1  <0> d   1       0.640   0.238  -1.078  0.00  0.00     0.034 C 
ENDBRANCH  20  21
ENDBRANCH  15  20
ENDBRANCH  13  14
ENDBRANCH   1  13
BRANCH  11  23
ATOM     23  C18 <0> d   1       4.958  -5.161   7.696  0.00  0.00     0.317 C 
BRANCH  23  24
ATOM     24  N1  <0> d   1       6.194  -5.546   7.001  0.00  0.00     0.096 N 
ATOM     25  C22 <0> d   1       6.519  -6.958   7.247  0.00  0.00     0.303 C 
ATOM     26  C21 <0> d   1       7.851  -7.296   6.573  0.00  0.00     0.302 C 
ATOM     27  N2  <0> d   1       7.752  -7.025   5.132  0.00  0.00     0.087 N 
ATOM     28  C20 <0> d   1       7.427  -5.613   4.887  0.00  0.00     0.302 C 
ATOM     29  C23 <0> d   1       8.988  -7.409   4.438  0.00  0.00     0.310 C 
ATOM     30  C19 <0> d   1       6.095  -5.274   5.560  0.00  0.00     0.303 C 
ENDBRANCH  23  24
ENDBRANCH  11  23
BRANCH  10  31
ATOM     31  O5  <0> d   1       5.998  -3.422   9.652  0.00  0.00    -0.360 OA
ATOM     32  H25 <0> d   1       5.441  -3.650  10.409  0.00  0.00     0.217 HD
ENDBRANCH  10  31
TORSDOF 7
