REMARK  9 active torsions:
REMARK  status: ('A' for Active; 'I' for Inactive)
REMARK    1  A    between atoms: O1_2  and  C2_3 
REMARK    2  A    between atoms: C5_6  and  C9_11 
REMARK    3  A    between atoms: C6_7  and  O2_9 
REMARK    4  A    between atoms: C15_18  and  O6_32 
REMARK    5  A    between atoms: C16_19  and  C18_22 
REMARK    6  A    between atoms: C18_22  and  N1_23 
REMARK    7  A    between atoms: N2_26  and  C23_29 
REMARK    8  A    between atoms: C23_29  and  C24_30 
REMARK    9  A    between atoms: C24_30  and  O5_31 
ROOT
ATOM      1  C9  <0> d   1      -4.959  -2.588   0.037  0.00  0.00     0.055 C 
ATOM      2  C10 <0> d   1      -6.101  -1.858   0.150  0.00  0.00     0.128 A 
ATOM      3  C11 <0> d   1      -7.462  -2.392   0.283  0.00  0.00     0.218 A 
ATOM      4  O3  <0> d   1      -7.804  -3.562   0.315  0.00  0.00    -0.284 OA
ATOM      5  C12 <0> d   1      -8.322  -1.198   0.369  0.00  0.00     0.051 A 
ATOM      6  C13 <0> d   1      -9.699  -1.021   0.504  0.00  0.00     0.021 A 
ATOM      7  C14 <0> d   1     -10.222   0.240   0.557  0.00  0.00     0.038 A 
ATOM      8  C15 <0> d   1      -9.383   1.349   0.476  0.00  0.00     0.076 A 
ATOM      9  C16 <0> d   1      -8.014   1.189   0.341  0.00  0.00     0.038 A 
ATOM     10  C17 <0> d   1      -7.466  -0.087   0.286  0.00  0.00     0.101 A 
ATOM     11  O4  <0> d   1      -6.188  -0.506   0.165  0.00  0.00    -0.305 OA
ENDROOT
BRANCH   1  12
ATOM     12  C5  <0> d   1      -3.656  -1.919   0.073  0.00  0.00     0.000 A 
ATOM     13  C4  <0> d   1      -3.568  -0.536  -0.135  0.00  0.00     0.017 A 
ATOM     14  C3  <0> d   1      -2.352   0.084  -0.101  0.00  0.00     0.038 A 
ATOM     15  C2  <0> d   1      -1.194  -0.649   0.141  0.00  0.00     0.070 A 
ATOM     16  C7  <0> d   1      -1.262  -2.020   0.344  0.00  0.00     0.074 A 
ATOM     17  C6  <0> d   1      -2.487  -2.663   0.317  0.00  0.00     0.081 A 
BRANCH  15  18
ATOM     18  O1  <0> d   1       0.009  -0.021   0.174  0.00  0.00    -0.356 OA
ATOM     19  C1  <0> d   1       0.009   1.392  -0.042  0.00  0.00     0.210 C 
ENDBRANCH  15  18
BRANCH  17  20
ATOM     20  O2  <0> d   1      -2.560  -4.002   0.520  0.00  0.00    -0.355 OA
ATOM     21  C8  <0> d   1      -1.331  -4.690   0.762  0.00  0.00     0.210 C 
ENDBRANCH  17  20
ENDBRANCH   1  12
BRANCH   9  22
ATOM     22  C18 <0> d   1      -7.119   2.398   0.254  0.00  0.00     0.317 C 
BRANCH  22  23
ATOM     23  N1  <0> d   1      -6.692   2.790   1.603  0.00  0.00     0.096 N 
ATOM     24  C22 <0> d   1      -5.636   3.810   1.546  0.00  0.00     0.303 C 
ATOM     25  C21 <0> d   1      -5.165   4.133   2.966  0.00  0.00     0.302 C 
ATOM     26  N2  <0> d   1      -6.306   4.604   3.763  0.00  0.00     0.093 N 
ATOM     27  C20 <0> d   1      -7.362   3.583   3.820  0.00  0.00     0.302 C 
ATOM     28  C19 <0> d   1      -7.833   3.261   2.400  0.00  0.00     0.303 C 
BRANCH  26  29
ATOM     29  C23 <0> d   1      -5.880   4.996   5.113  0.00  0.00     0.298 C 
BRANCH  29  30
ATOM     30  C24 <0> d   1      -4.971   6.224   5.024  0.00  0.00     0.194 C 
BRANCH  30  31
ATOM     31  O5  <0> d   1      -5.718   7.335   4.526  0.00  0.00    -0.399 OA
ATOM     32  H27 <0> d   1      -5.204   8.150   4.444  0.00  0.00     0.209 HD
ENDBRANCH  30  31
ENDBRANCH  29  30
ENDBRANCH  26  29
ENDBRANCH  22  23
ENDBRANCH   9  22
BRANCH   8  33
ATOM     33  O6  <0> d   1      -9.912   2.598   0.529  0.00  0.00    -0.360 OA
ATOM     34  H28 <0> d   1      -9.979   2.959   1.423  0.00  0.00     0.217 HD
ENDBRANCH   8  33
TORSDOF 9
