REMARK  5 active torsions:
REMARK  status: ('A' for Active; 'I' for Inactive)
REMARK    1  A    between atoms: C5_5  and  C19_23 
REMARK    2  A    between atoms: C10_11  and  C11_12 
REMARK    3  A    between atoms: C14_15  and  O3_20 
REMARK    4  A    between atoms: C16_17  and  O2_18 
REMARK    5  A    between atoms: C19_23  and  N1_24 
ROOT
ATOM      1  C1  <0> d   1       0.389  12.295   0.096  0.00  0.00     0.049 C 
ATOM      2  C2  <0> d   1       0.740  11.034  -0.652  0.00  0.00    -0.042 A 
ATOM      3  C3  <0> d   1       1.454  11.104  -1.814  0.00  0.00     0.048 A 
ATOM      4  C4  <0> d   1       1.780   9.941  -2.506  0.00  0.00     0.118 A 
ATOM      5  C5  <0> d   1       1.384   8.702  -2.028  0.00  0.00     0.041 A 
ATOM      6  C6  <0> d   1       0.656   8.614  -0.848  0.00  0.00     0.102 A 
ATOM      7  C7  <0> d   1       0.334   9.794  -0.159  0.00  0.00     0.057 A 
ATOM      8  C8  <0> d   1      -0.428   9.383   1.035  0.00  0.00     0.219 A 
ATOM      9  O1  <0> d   1      -0.898  10.099   1.903  0.00  0.00    -0.284 OA
ATOM     10  C9  <0> d   1      -0.495   7.920   0.944  0.00  0.00     0.128 A 
ATOM     11  C10 <0> d   1      -1.105   7.087   1.829  0.00  0.00     0.055 C 
ATOM     12  O4  <0> d   1       0.165   7.548  -0.179  0.00  0.00    -0.305 OA
ATOM     13  O6  <0> d   1       2.490  10.021  -3.660  0.00  0.00    -0.191 OA
ENDROOT
BRANCH  11  14
ATOM     14  C11 <0> d   1      -0.952   5.636   1.695  0.00  0.00     0.000 A 
ATOM     15  C16 <0> d   1      -1.264   4.790   2.775  0.00  0.00     0.081 A 
ATOM     16  C15 <0> d   1      -1.116   3.421   2.635  0.00  0.00     0.074 A 
ATOM     17  C14 <0> d   1      -0.661   2.892   1.435  0.00  0.00     0.070 A 
ATOM     18  C13 <0> d   1      -0.347   3.732   0.371  0.00  0.00     0.038 A 
ATOM     19  C12 <0> d   1      -0.493   5.084   0.491  0.00  0.00     0.017 A 
BRANCH  15  20
ATOM     20  O2  <0> d   1      -1.708   5.312   3.945  0.00  0.00    -0.355 OA
ATOM     21  C17 <0> d   1      -2.005   4.391   4.996  0.00  0.00     0.210 C 
ENDBRANCH  15  20
BRANCH  17  22
ATOM     22  O3  <0> d   1      -0.516   1.549   1.301  0.00  0.00    -0.356 OA
ATOM     23  C18 <0> d   1      -0.044   1.071   0.041  0.00  0.00     0.210 C 
ENDBRANCH  17  22
ENDBRANCH  11  14
BRANCH   5  24
ATOM     24  C19 <0> d   1       1.742   7.451  -2.788  0.00  0.00     0.317 C 
BRANCH  24  25
ATOM     25  N1  <0> d   1       0.680   7.144  -3.755  0.00  0.00     0.097 N 
ATOM     26  C23 <0> d   1       1.097   6.076  -4.675  0.00  0.00     0.299 C 
ATOM     27  C22 <0> d   1      -0.014   5.830  -5.699  0.00  0.00     0.198 C 
ATOM     28  O5  <0> d   1      -1.227   5.510  -5.013  0.00  0.00    -0.388 OA
ATOM     29  C21 <0> d   1      -1.662   6.529  -4.109  0.00  0.00     0.198 C 
ATOM     30  C20 <0> d   1      -0.569   6.782  -3.068  0.00  0.00     0.299 C 
ENDBRANCH  24  25
ENDBRANCH   5  24
TORSDOF 5
