REMARK  6 active torsions:
REMARK  status: ('A' for Active; 'I' for Inactive)
REMARK    1  A    between atoms: C2_2  and  O1_3 
REMARK    2  A    between atoms: O1_3  and  C3_4 
REMARK    3  A    between atoms: C6_7  and  C9_11 
REMARK    4  A    between atoms: C7_8  and  O2_10 
REMARK    5  A    between atoms: C10_12  and  C13_18 
REMARK    6  A    between atoms: C18_23  and  O3_24 
ROOT
ATOM      1  C9  <0> d   1       1.103  -6.019  -1.834  0.00  0.00     0.076 A 
ATOM      2  C10 <0> d   1       2.275  -6.763  -1.829  0.00  0.00     0.032 A 
ATOM      3  C11 <0> d   1       1.917  -8.109  -2.026  0.00  0.00     0.064 A 
ATOM      4  N1  <0> d   1       0.617  -8.180  -2.142  0.00  0.00    -0.178 NA
ATOM      5  N2  <0> d   1       0.075  -6.895  -2.022  0.00  0.00    -0.276 N 
ATOM      6  H1  <0> d   1      -0.867  -6.668  -2.067  0.00  0.00     0.189 HD
ATOM      7  C12 <0> d   1       2.871  -9.273  -2.092  0.00  0.00     0.073 C 
ENDROOT
BRANCH   1   8
ATOM      8  C6  <0> d   1       0.989  -4.557  -1.661  0.00  0.00     0.026 A 
ATOM      9  C5  <0> d   1       0.344  -4.032  -0.540  0.00  0.00     0.019 A 
ATOM     10  C4  <0> d   1       0.240  -2.666  -0.383  0.00  0.00     0.038 A 
ATOM     11  C3  <0> d   1       0.777  -1.810  -1.336  0.00  0.00     0.071 A 
ATOM     12  C8  <0> d   1       1.415  -2.322  -2.456  0.00  0.00     0.074 A 
ATOM     13  C7  <0> d   1       1.529  -3.692  -2.622  0.00  0.00     0.081 A 
BRANCH  11  14
ATOM     14  O1  <0> d   1       0.671  -0.465  -1.174  0.00  0.00    -0.351 OA
BRANCH  14  15
ATOM     15  C2  <0> d   1       0.002  -0.004   0.002  0.00  0.00     0.171 C 
ATOM     16  C1  <0> d   1      -0.019   1.526   0.010  0.00  0.00     0.034 C 
ENDBRANCH  14  15
ENDBRANCH  11  14
BRANCH  13  17
ATOM     17  O2  <0> d   1       2.159  -4.195  -3.715  0.00  0.00    -0.360 OA
ATOM     18  H10 <0> d   1       1.574  -4.348  -4.470  0.00  0.00     0.217 HD
ENDBRANCH  13  17
ENDBRANCH   1   8
BRANCH   2  19
ATOM     19  C13 <0> d   1       3.649  -6.237  -1.652  0.00  0.00     0.012 A 
ATOM     20  C18 <0> d   1       4.399  -5.840  -2.764  0.00  0.00     0.079 A 
ATOM     21  C17 <0> d   1       5.680  -5.343  -2.588  0.00  0.00     0.037 A 
ATOM     22  C16 <0> d   1       6.219  -5.252  -1.318  0.00  0.00     0.003 A 
ATOM     23  C15 <0> d   1       5.482  -5.649  -0.216  0.00  0.00     0.001 A 
ATOM     24  C14 <0> d   1       4.202  -6.140  -0.376  0.00  0.00     0.015 A 
BRANCH  20  25
ATOM     25  O3  <0> d   1       3.870  -5.935  -4.012  0.00  0.00    -0.355 OA
ATOM     26  C19 <0> d   1       4.694  -5.511  -5.099  0.00  0.00     0.210 C 
ENDBRANCH  20  25
ENDBRANCH   2  19
TORSDOF 6
