REMARK  2 active torsions:
REMARK  status: ('A' for Active; 'I' for Inactive)
REMARK    1  A    between atoms: C9_10  and  C10_11 
REMARK    2  A    between atoms: N1_21  and  C19_24 
ROOT
ATOM      1  C1  <0> d   1       2.224   6.312  -0.252  0.00  0.00     0.054 C 
ATOM      2  C2  <0> d   1       3.153   5.126  -0.206  0.00  0.00     0.007 A 
ATOM      3  C3  <0> d   1       4.526   5.324  -0.155  0.00  0.00     0.087 A 
ATOM      4  C4  <0> d   1       5.392   4.236  -0.112  0.00  0.00     0.005 A 
ATOM      5  C5  <0> d   1       4.894   2.962  -0.121  0.00  0.00     0.030 A 
ATOM      6  C6  <0> d   1       3.517   2.750  -0.172  0.00  0.00     0.052 A 
ATOM      7  C7  <0> d   1       2.632   3.839  -0.215  0.00  0.00     0.099 A 
ATOM      8  O1  <0> d   1       1.359   3.390  -0.259  0.00  0.00    -0.305 OA
ATOM      9  C8  <0> d   1       1.301   2.038  -0.251  0.00  0.00     0.127 A 
ATOM     10  C9  <0> d   1       0.174   1.283  -0.288  0.00  0.00     0.053 C 
ATOM     11  C16 <0> d   1       2.682   1.535  -0.188  0.00  0.00     0.218 A 
ATOM     12  O2  <0> d   1       3.053   0.375  -0.158  0.00  0.00    -0.284 OA
ATOM     13  C17 <0> d   1       6.885   4.442  -0.053  0.00  0.00     0.317 C 
ATOM     14  N1  <0> d   1       7.210   5.814  -0.465  0.00  0.00     0.121 N 
ATOM     15  C18 <0> d   1       6.364   6.776   0.263  0.00  0.00     0.448 C 
ATOM     16  O3  <0> d   1       5.008   6.595  -0.151  0.00  0.00    -0.320 OA
ENDROOT
BRANCH  10  17
ATOM     17  C10 <0> d   1      -1.144   1.929  -0.236  0.00  0.00    -0.033 A 
ATOM     18  C15 <0> d   1      -1.246   3.325  -0.274  0.00  0.00     0.014 A 
ATOM     19  C14 <0> d   1      -2.485   3.923  -0.226  0.00  0.00     0.043 A 
ATOM     20  C13 <0> d   1      -3.631   3.147  -0.139  0.00  0.00     0.116 A 
ATOM     21  C12 <0> d   1      -3.538   1.763  -0.101  0.00  0.00     0.043 A 
ATOM     22  F1  <0> d   1      -4.844   3.741  -0.092  0.00  0.00    -0.206 F 
ATOM     23  C11 <0> d   1      -2.305   1.151  -0.154  0.00  0.00     0.014 A 
ENDBRANCH  10  17
BRANCH  14  24
ATOM     24  C19 <0> d   1       8.635   6.104  -0.256  0.00  0.00     0.240 C 
ATOM     25  C22 <0> d   1       8.965   7.501  -0.832  0.00  0.00     0.176 C 
ATOM     26  S1  <0> d   1      10.707   7.307  -1.389  0.00  0.00     0.146 S 
ATOM     27  C21 <0> d   1      10.957   5.525  -0.996  0.00  0.00     0.142 C 
ATOM     28  O4  <0> d   1      10.765   7.483  -2.798  0.00  0.00    -0.228 OA
ATOM     29  O5  <0> d   1      11.550   8.088  -0.551  0.00  0.00    -0.228 OA
ATOM     30  C20 <0> d   1       9.482   5.032  -0.962  0.00  0.00     0.052 C 
ENDBRANCH  14  24
TORSDOF 2
