REMARK  5 active torsions:
REMARK  status: ('A' for Active; 'I' for Inactive)
REMARK    1  A    between atoms: C2_2  and  N1_3 
REMARK    2  A    between atoms: N1_3  and  C3_4 
REMARK    3  A    between atoms: N1_3  and  C5_6 
REMARK    4  A    between atoms: C5_6  and  C6_7 
REMARK    5  A    between atoms: C13_15  and  C15_18 
ROOT
ATOM      1  C6  <0> d   1      -1.396   1.349   1.243  0.00  0.00     0.039 A 
ATOM      2  C7  <0> d   1      -1.095   2.492   1.965  0.00  0.00     0.118 A 
ATOM      3  C8  <0> d   1      -1.968   2.963   2.943  0.00  0.00     0.041 A 
ATOM      4  C9  <0> d   1      -3.130   2.296   3.209  0.00  0.00     0.021 A 
ATOM      5  C10 <0> d   1      -3.444   1.140   2.494  0.00  0.00     0.050 A 
ATOM      6  C11 <0> d   1      -2.572   0.659   1.501  0.00  0.00     0.100 A 
ATOM      7  O1  <0> d   1      -2.878  -0.458   0.811  0.00  0.00    -0.320 OA
ATOM      8  C12 <0> d   1      -3.994  -1.163   1.014  0.00  0.00     0.159 A 
ATOM      9  C13 <0> d   1      -4.922  -0.811   1.941  0.00  0.00     0.048 A 
ATOM     10  C14 <0> d   1      -4.689   0.395   2.754  0.00  0.00     0.197 A 
ATOM     11  O2  <0> d   1      -5.487   0.758   3.600  0.00  0.00    -0.286 OA
ATOM     12  O3  <0> d   1       0.059   3.161   1.715  0.00  0.00    -0.191 OA
ENDROOT
BRANCH   1  13
ATOM     13  C5  <0> d   1      -0.446   0.853   0.183  0.00  0.00     0.279 C 
BRANCH  13  14
ATOM     14  N1  <0> d   1      -0.795   1.458  -1.109  0.00  0.00    -0.068 N 
ATOM     15  H20 <0> d   1      -1.867   1.285  -1.285  0.00  0.00     0.280 HD
BRANCH  14  16
ATOM     16  C2  <0> d   1      -0.569   2.909  -1.089  0.00  0.00     0.231 C 
ATOM     17  C1  <0> d   1       0.928   3.191  -0.949  0.00  0.00     0.034 C 
ENDBRANCH  14  16
BRANCH  14  18
ATOM     18  C3  <0> d   1      -0.049   0.824  -2.205  0.00  0.00     0.231 C 
ATOM     19  C4  <0> d   1      -0.698   1.191  -3.542  0.00  0.00     0.034 C 
ENDBRANCH  14  18
ENDBRANCH  13  14
ENDBRANCH   1  13
BRANCH   9  20
ATOM     20  C15 <0> d   1      -6.146  -1.626   2.131  0.00  0.00    -0.020 A 
ATOM     21  C20 <0> d   1      -6.925  -1.985   1.032  0.00  0.00     0.014 A 
ATOM     22  C19 <0> d   1      -8.064  -2.744   1.214  0.00  0.00     0.020 A 
ATOM     23  C18 <0> d   1      -8.432  -3.148   2.486  0.00  0.00     0.011 A 
ATOM     24  C17 <0> d   1      -7.663  -2.794   3.580  0.00  0.00     0.020 A 
ATOM     25 Br1  <0> d   1      -9.993  -4.187   2.728  0.00  0.00    -0.051 Br
ATOM     26  C16 <0> d   1      -6.519  -2.041   3.408  0.00  0.00     0.014 A 
ENDBRANCH   9  20
TORSDOF 5
