REMARK  6 active torsions:
REMARK  status: ('A' for Active; 'I' for Inactive)
REMARK    1  A    between atoms: C5_5  and  C16_19 
REMARK    2  A    between atoms: C10_11  and  C11_12 
REMARK    3  A    between atoms: C16_19  and  N2_20 
REMARK    4  A    between atoms: N3_23  and  C21_26 
REMARK    5  A    between atoms: C21_26  and  C22_27 
REMARK    6  A    between atoms: C22_27  and  O3_28 
ROOT
ATOM      1  C1  <0> d   1       2.474   0.609  -0.484  0.00  0.00     0.049 C 
ATOM      2  C2  <0> d   1       1.272   1.514  -0.566  0.00  0.00    -0.042 A 
ATOM      3  C3  <0> d   1       0.013   0.988  -0.479  0.00  0.00     0.048 A 
ATOM      4  C4  <0> d   1      -1.099   1.821  -0.560  0.00  0.00     0.118 A 
ATOM      5  C5  <0> d   1      -0.946   3.189  -0.717  0.00  0.00     0.039 A 
ATOM      6  C6  <0> d   1       0.327   3.740  -0.806  0.00  0.00     0.102 A 
ATOM      7  C7  <0> d   1       1.441   2.889  -0.730  0.00  0.00     0.057 A 
ATOM      8  C8  <0> d   1       2.631   3.750  -0.855  0.00  0.00     0.219 A 
ATOM      9  O1  <0> d   1       3.802   3.412  -0.839  0.00  0.00    -0.284 OA
ATOM     10  C9  <0> d   1       2.088   5.110  -1.003  0.00  0.00     0.128 A 
ATOM     11  C10 <0> d   1       2.808   6.249  -1.149  0.00  0.00     0.054 C 
ATOM     12  O2  <0> d   1       0.738   5.017  -0.964  0.00  0.00    -0.305 OA
ATOM     13  O4  <0> d   1      -2.345   1.289  -0.478  0.00  0.00    -0.191 OA
ENDROOT
BRANCH   5  14
ATOM     14  C16 <0> d   1      -2.159   4.080  -0.796  0.00  0.00     0.279 C 
BRANCH  14  15
ATOM     15  N2  <0> d   1      -2.581   4.208  -2.198  0.00  0.00    -0.064 N 
ATOM     16  C20 <0> d   1      -3.890   4.868  -2.295  0.00  0.00     0.265 C 
ATOM     17  C19 <0> d   1      -4.329   4.911  -3.761  0.00  0.00     0.300 C 
ATOM     18  N3  <0> d   1      -3.319   5.630  -4.551  0.00  0.00     0.093 N 
ATOM     19  C18 <0> d   1      -2.010   4.969  -4.454  0.00  0.00     0.300 C 
ATOM     20  C17 <0> d   1      -1.571   4.926  -2.988  0.00  0.00     0.265 C 
ATOM     21  H25 <0> d   1      -2.680   3.194  -2.614  0.00  0.00     0.280 HD
BRANCH  18  22
ATOM     22  C21 <0> d   1      -3.741   5.758  -5.952  0.00  0.00     0.298 C 
BRANCH  22  23
ATOM     23  C22 <0> d   1      -3.553   4.418  -6.666  0.00  0.00     0.194 C 
BRANCH  23  24
ATOM     24  O3  <0> d   1      -4.468   3.460  -6.130  0.00  0.00    -0.399 OA
ATOM     25  H24 <0> d   1      -4.480   2.432  -6.522  0.00  0.00     0.209 HD
ENDBRANCH  23  24
ENDBRANCH  22  23
ENDBRANCH  18  22
ENDBRANCH  14  15
ENDBRANCH   5  14
BRANCH  11  26
ATOM     26  C11 <0> d   1       2.130   7.553  -1.146  0.00  0.00    -0.016 A 
ATOM     27  C15 <0> d   1       2.842   8.727  -1.418  0.00  0.00     0.127 A 
ATOM     28  N1  <0> d   1       2.233   9.894  -1.414  0.00  0.00    -0.272 NA
ATOM     29  C14 <0> d   1       0.944  10.007  -1.157  0.00  0.00     0.116 A 
ATOM     30  C13 <0> d   1       0.169   8.895  -0.879  0.00  0.00     0.020 A 
ATOM     31  C12 <0> d   1       0.756   7.644  -0.875  0.00  0.00     0.014 A 
ENDBRANCH  11  26
TORSDOF 6
