REMARK  6 active torsions:
REMARK  status: ('A' for Active; 'I' for Inactive)
REMARK    1  A    between atoms: C2_2  and  O1_3 
REMARK    2  A    between atoms: O1_3  and  C3_4 
REMARK    3  A    between atoms: C8_9  and  O2_10 
REMARK    4  A    between atoms: O2_10  and  C9_11 
REMARK    5  A    between atoms: C17_21  and  C18_22 
REMARK    6  A    between atoms: C18_22  and  N1_23 
ROOT
ATOM      1  C9  <0> d   1      -1.532  -3.428  -4.176  0.00  0.00     0.156 A 
ATOM      2  C10 <0> d   1      -1.569  -2.119  -3.854  0.00  0.00     0.087 A 
ATOM      3  O3  <0> d   1      -1.498  -1.682  -2.590  0.00  0.00    -0.311 OA
ATOM      4  C11 <0> d   1      -1.383  -2.520  -1.541  0.00  0.00     0.101 A 
ATOM      5  C12 <0> d   1      -1.329  -3.908  -1.758  0.00  0.00     0.052 A 
ATOM      6  C13 <0> d   1      -1.400  -4.401  -3.145  0.00  0.00     0.221 A 
ATOM      7  O4  <0> d   1      -1.362  -5.594  -3.398  0.00  0.00    -0.284 OA
ATOM      8  C14 <0> d   1      -1.216  -4.786  -0.680  0.00  0.00     0.021 A 
ATOM      9  C15 <0> d   1      -1.152  -4.292   0.592  0.00  0.00     0.041 A 
ATOM     10  C16 <0> d   1      -1.200  -2.918   0.817  0.00  0.00     0.118 A 
ATOM     11  C17 <0> d   1      -1.312  -2.034  -0.243  0.00  0.00     0.039 A 
ATOM     12  O5  <0> d   1      -1.136  -2.441   2.087  0.00  0.00    -0.191 OA
ATOM     13  C21 <0> d   1      -1.697  -1.107  -4.963  0.00  0.00     0.080 C 
ENDROOT
BRANCH   1  14
ATOM     14  O2  <0> d   1      -1.608  -3.816  -5.479  0.00  0.00    -0.301 OA
BRANCH  14  15
ATOM     15  C8  <0> d   1      -0.448  -3.942  -6.176  0.00  0.00     0.109 A 
ATOM     16  C3  <0> d   1      -0.476  -4.336  -7.511  0.00  0.00     0.102 A 
ATOM     17  C4  <0> d   1       0.709  -4.463  -8.217  0.00  0.00     0.039 A 
ATOM     18  C5  <0> d   1       1.916  -4.198  -7.596  0.00  0.00     0.003 A 
ATOM     19  C6  <0> d   1       1.944  -3.807  -6.271  0.00  0.00     0.003 A 
ATOM     20  C7  <0> d   1       0.765  -3.673  -5.561  0.00  0.00     0.040 A 
BRANCH  16  21
ATOM     21  O1  <0> d   1      -1.664  -4.595  -8.120  0.00  0.00    -0.349 OA
BRANCH  21  22
ATOM     22  C2  <0> d   1      -1.616  -4.995  -9.491  0.00  0.00     0.171 C 
ATOM     23  C1  <0> d   1      -3.038  -5.241 -10.001  0.00  0.00     0.034 C 
ENDBRANCH  21  22
ENDBRANCH  16  21
ENDBRANCH  14  15
ENDBRANCH   1  14
BRANCH  11  24
ATOM     24  C18 <0> d   1      -1.362  -0.549   0.012  0.00  0.00     0.278 C 
BRANCH  24  25
ATOM     25  N1  <0> d   1       0.002  -0.004   0.002  0.00  0.00    -0.075 N 
ATOM     26  C19 <0> d   1      -0.018   1.465   0.010  0.00  0.00     0.269 C 
ATOM     27  C20 <0> d   1       0.786  -0.526   1.129  0.00  0.00     0.269 C 
ATOM     28  H23 <0> d   1       0.490  -0.331  -0.928  0.00  0.00     0.279 HD
ENDBRANCH  24  25
ENDBRANCH  11  24
TORSDOF 6
