REMARK  8 active torsions:
REMARK  status: ('A' for Active; 'I' for Inactive)
REMARK    1  A    between atoms: C2_2  and  O1_3 
REMARK    2  A    between atoms: O1_3  and  C3_4 
REMARK    3  A    between atoms: C3_4  and  C4_6 
REMARK    4  A    between atoms: C7_9  and  O3_12 
REMARK    5  A    between atoms: O3_12  and  C10_13 
REMARK    6  A    between atoms: C17_22  and  O6_32 
REMARK    7  A    between atoms: C18_23  and  C19_24 
REMARK    8  A    between atoms: C19_24  and  N1_25 
ROOT
ATOM      1  C10 <0> d   1      -6.850  -5.393   0.092  0.00  0.00     0.156 A 
ATOM      2  C11 <0> d   1      -5.802  -6.238   0.165  0.00  0.00     0.087 A 
ATOM      3  O4  <0> d   1      -5.946  -7.569   0.210  0.00  0.00    -0.311 OA
ATOM      4  C12 <0> d   1      -7.155  -8.166   0.188  0.00  0.00     0.100 A 
ATOM      5  C13 <0> d   1      -8.320  -7.382   0.114  0.00  0.00     0.052 A 
ATOM      6  C14 <0> d   1      -8.174  -5.917   0.068  0.00  0.00     0.221 A 
ATOM      7  O5  <0> d   1      -9.146  -5.183   0.008  0.00  0.00    -0.284 OA
ATOM      8  C15 <0> d   1      -9.576  -7.988   0.090  0.00  0.00     0.021 A 
ATOM      9  C16 <0> d   1      -9.672  -9.350   0.140  0.00  0.00     0.038 A 
ATOM     10  C17 <0> d   1      -8.523 -10.135   0.213  0.00  0.00     0.076 A 
ATOM     11  C18 <0> d   1      -7.269  -9.548   0.237  0.00  0.00     0.035 A 
ATOM     12  C25 <0> d   1      -4.410  -5.661   0.195  0.00  0.00     0.080 C 
ENDROOT
BRANCH   1  13
ATOM     13  O3  <0> d   1      -6.644  -4.048   0.049  0.00  0.00    -0.304 OA
BRANCH  13  14
ATOM     14  C7  <0> d   1      -6.973  -3.390  -1.091  0.00  0.00     0.076 A 
ATOM     15  C6  <0> d   1      -6.887  -2.003  -1.140  0.00  0.00     0.038 A 
ATOM     16  C5  <0> d   1      -7.220  -1.332  -2.295  0.00  0.00     0.020 A 
ATOM     17  C4  <0> d   1      -7.643  -2.046  -3.420  0.00  0.00     0.039 A 
ATOM     18  C9  <0> d   1      -7.733  -3.441  -3.365  0.00  0.00     0.020 A 
ATOM     19  C8  <0> d   1      -7.393  -4.105  -2.208  0.00  0.00     0.038 A 
BRANCH  17  20
ATOM     20  C3  <0> d   1      -8.000  -1.331  -4.659  0.00  0.00     0.293 C 
ATOM     21  O2  <0> d   1      -8.373  -1.954  -5.634  0.00  0.00    -0.259 OA
BRANCH  20  22
ATOM     22  O1  <0> d   1      -7.913   0.012  -4.710  0.00  0.00    -0.318 OA
BRANCH  22  23
ATOM     23  C2  <0> d   1      -8.275   0.639  -5.943  0.00  0.00     0.174 C 
ATOM     24  C1  <0> d   1      -8.113   2.155  -5.810  0.00  0.00     0.034 C 
ENDBRANCH  22  23
ENDBRANCH  20  22
ENDBRANCH  17  20
ENDBRANCH  13  14
ENDBRANCH   1  13
BRANCH  11  25
ATOM     25  C19 <0> d   1      -6.033 -10.406   0.316  0.00  0.00     0.279 C 
BRANCH  25  26
ATOM     26  N1  <0> d   1      -5.683 -10.632   1.725  0.00  0.00    -0.064 N 
ATOM     27  C23 <0> d   1      -4.551 -11.565   1.804  0.00  0.00     0.265 C 
ATOM     28  C22 <0> d   1      -4.198 -11.815   3.272  0.00  0.00     0.299 C 
ATOM     29  N2  <0> d   1      -3.850 -10.539   3.913  0.00  0.00     0.087 N 
ATOM     30  C21 <0> d   1      -4.964  -9.586   3.819  0.00  0.00     0.299 C 
ATOM     31  C24 <0> d   1      -3.449 -10.745   5.311  0.00  0.00     0.310 C 
ATOM     32  C20 <0> d   1      -5.311  -9.355   2.347  0.00  0.00     0.265 C 
ATOM     33  H29 <0> d   1      -6.476 -11.024   2.210  0.00  0.00     0.280 HD
ENDBRANCH  25  26
ENDBRANCH  11  25
BRANCH  10  34
ATOM     34  O6  <0> d   1      -8.634 -11.487   0.262  0.00  0.00    -0.360 OA
ATOM     35  H25 <0> d   1      -8.633 -11.913  -0.606  0.00  0.00     0.217 HD
ENDBRANCH  10  34
TORSDOF 8
