REMARK  6 active torsions:
REMARK  status: ('A' for Active; 'I' for Inactive)
REMARK    1  A    between atoms: C3_3  and  O3_28 
REMARK    2  A    between atoms: C10_12  and  C11_13 
REMARK    3  A    between atoms: C11_13  and  N1_14 
REMARK    4  A    between atoms: N2_17  and  C16_20 
REMARK    5  A    between atoms: C16_20  and  C17_21 
REMARK    6  A    between atoms: C17_21  and  C18_22 
ROOT
ATOM      1  N1  <0> d   1      -6.936   5.445  -2.002  0.00  0.00     0.096 N 
ATOM      2  C12 <0> d   1      -5.860   6.261  -2.582  0.00  0.00     0.300 C 
ATOM      3  C13 <0> d   1      -4.552   5.466  -2.559  0.00  0.00     0.265 C 
ATOM      4  N2  <0> d   1      -4.236   5.088  -1.175  0.00  0.00    -0.067 N 
ATOM      5  C14 <0> d   1      -5.312   4.272  -0.595  0.00  0.00     0.265 C 
ATOM      6  C15 <0> d   1      -6.620   5.067  -0.618  0.00  0.00     0.300 C 
ATOM      7  H26 <0> d   1      -4.152   6.010  -0.581  0.00  0.00     0.280 HD
ENDROOT
BRANCH   1   8
ATOM      8  C11 <0> d   1      -8.226   6.145  -2.075  0.00  0.00     0.312 C 
BRANCH   8   9
ATOM      9  C10 <0> d   1      -9.284   5.324  -1.385  0.00  0.00    -0.011 A 
ATOM     10  C6  <0> d   1      -9.819   4.111  -2.007  0.00  0.00     0.007 A 
ATOM     11  C5  <0> d   1      -9.363   3.681  -3.258  0.00  0.00     0.017 A 
ATOM     12  C7  <0> d   1     -10.806   3.374  -1.326  0.00  0.00     0.099 A 
ATOM     13  C4  <0> d   1      -9.879   2.547  -3.816  0.00  0.00     0.038 A 
ATOM     14  C3  <0> d   1     -10.857   1.814  -3.147  0.00  0.00     0.074 A 
ATOM     15  C2  <0> d   1     -11.319   2.224  -1.907  0.00  0.00     0.006 A 
ATOM     16  C1  <0> d   1     -12.377   1.423  -1.191  0.00  0.00     0.054 C 
ATOM     17  O1  <0> d   1     -11.243   3.791  -0.118  0.00  0.00    -0.274 OA
ATOM     18  C8  <0> d   1     -10.756   4.902   0.457  0.00  0.00     0.288 A 
ATOM     19  O2  <0> d   1     -11.180   5.239   1.548  0.00  0.00    -0.260 OA
ATOM     20  C9  <0> d   1      -9.762   5.685  -0.166  0.00  0.00     0.092 A 
BRANCH  14  21
ATOM     21  O3  <0> d   1     -11.360   0.688  -3.714  0.00  0.00    -0.360 OA
ATOM     22  H25 <0> d   1     -10.996   0.358  -4.698  0.00  0.00     0.217 HD
ENDBRANCH  14  21
ENDBRANCH   8   9
ENDBRANCH   1   8
BRANCH   4  23
ATOM     23  C16 <0> d   1      -2.947   4.387  -1.102  0.00  0.00     0.239 C 
BRANCH  23  24
ATOM     24  C17 <0> d   1      -2.533   4.232   0.363  0.00  0.00     0.066 C 
BRANCH  24  25
ATOM     25  C18 <0> d   1      -1.210   3.513   0.438  0.00  0.00    -0.054 A 
ATOM     26  C22 <0> d   1      -0.017   4.219   0.423  0.00  0.00     0.026 A 
ATOM     27  C21 <0> d   1       1.176   3.526   0.493  0.00  0.00     0.116 A 
ATOM     28  N3  <0> d   1       1.188   2.210   0.572  0.00  0.00    -0.273 NA
ATOM     29  C20 <0> d   1       0.073   1.506   0.589  0.00  0.00     0.116 A 
ATOM     30  C19 <0> d   1      -1.158   2.130   0.517  0.00  0.00     0.026 A 
ENDBRANCH  24  25
ENDBRANCH  23  24
ENDBRANCH   4  23
TORSDOF 6
