REMARK  9 active torsions:
REMARK  status: ('A' for Active; 'I' for Inactive)
REMARK    1  A    between atoms: C2_2  and  C4_4 
REMARK    2  A    between atoms: C4_4  and  O2_6 
REMARK    3  A    between atoms: O2_6  and  C5_7 
REMARK    4  A    between atoms: C5_7  and  C6_8 
REMARK    5  A    between atoms: C6_8  and  C7_9 
REMARK    6  A    between atoms: C6_8  and  O4_24 
REMARK    7  A    between atoms: C7_9  and  N1_10 
REMARK    8  A    between atoms: N2_13  and  C12_16 
REMARK    9  A    between atoms: C15_19  and  O3_22 
ROOT
ATOM      1  N1  <0> d   1      -0.724   1.573  -1.182  0.00  0.00    -0.066 N 
ATOM      2  C8  <0> d   1      -0.013   1.086   0.008  0.00  0.00     0.249 C 
ATOM      3  C9  <0> d   1      -0.730   1.580   1.267  0.00  0.00     0.123 C 
ATOM      4  N2  <0> d   1      -0.783   3.048   1.252  0.00  0.00    -0.280 NA
ATOM      5  C10 <0> d   1      -1.495   3.536   0.062  0.00  0.00     0.123 C 
ATOM      6  C11 <0> d   1      -0.777   3.042  -1.196  0.00  0.00     0.249 C 
ATOM      7  H27 <0> d   1      -1.757   1.196  -1.138  0.00  0.00     0.280 HD
ENDROOT
BRANCH   1   8
ATOM      8  C7  <0> d   1      -0.109   1.057  -2.412  0.00  0.00     0.268 C 
BRANCH   8   9
ATOM      9  C6  <0> d   1      -1.011   1.374  -3.606  0.00  0.00     0.168 C 
BRANCH   9  10
ATOM     10  C5  <0> d   1      -0.370   0.836  -4.887  0.00  0.00     0.212 C 
BRANCH  10  11
ATOM     11  O2  <0> d   1      -1.166   1.239  -6.032  0.00  0.00    -0.315 OA
BRANCH  11  12
ATOM     12  C4  <0> d   1      -0.735   0.843  -7.247  0.00  0.00     0.288 C 
ATOM     13  O1  <0> d   1       0.279   0.179  -7.345  0.00  0.00    -0.260 OA
BRANCH  12  14
ATOM     14  C2  <0> d   1      -1.490   1.214  -8.451  0.00  0.00     0.004 C 
ATOM     15  C1  <0> d   1      -2.746   2.037  -8.329  0.00  0.00     0.054 C 
ATOM     16  C3  <0> d   1      -1.064   0.824  -9.650  0.00  0.00     0.024 C 
ENDBRANCH  12  14
ENDBRANCH  11  12
ENDBRANCH  10  11
ENDBRANCH   9  10
BRANCH   9  17
ATOM     17  O4  <0> d   1      -2.286   0.757  -3.416  0.00  0.00    -0.392 OA
ATOM     18  H26 <0> d   1      -2.900   1.020  -2.542  0.00  0.00     0.210 HD
ENDBRANCH   9  17
ENDBRANCH   8   9
ENDBRANCH   1   8
BRANCH   4  19
ATOM     19  C12 <0> d   1      -1.370   3.540   2.424  0.00  0.00     0.010 A 
ATOM     20  C17 <0> d   1      -0.844   3.195   3.662  0.00  0.00     0.026 A 
ATOM     21  C16 <0> d   1      -1.423   3.681   4.817  0.00  0.00     0.038 A 
ATOM     22  C15 <0> d   1      -2.530   4.514   4.742  0.00  0.00     0.068 A 
ATOM     23  C14 <0> d   1      -3.056   4.859   3.506  0.00  0.00     0.038 A 
ATOM     24  C13 <0> d   1      -2.474   4.378   2.349  0.00  0.00     0.026 A 
BRANCH  22  25
ATOM     25  O3  <0> d   1      -3.099   4.992   5.880  0.00  0.00    -0.356 OA
ATOM     26  C18 <0> d   1      -4.236   5.845   5.728  0.00  0.00     0.210 C 
ENDBRANCH  22  25
ENDBRANCH   4  19
TORSDOF 9
