REMARK  5 active torsions:
REMARK  status: ('A' for Active; 'I' for Inactive)
REMARK    1  A    between atoms: C6_6  and  C7_7 
REMARK    2  A    between atoms: N1_19  and  C18_22 
REMARK    3  A    between atoms: C18_22  and  C19_23 
REMARK    4  A    between atoms: C19_23  and  C20_24 
REMARK    5  A    between atoms: C20_24  and  N2_25 
ROOT
ATOM      1  C7  <0> d   1      -1.269  -0.765   0.011  0.00  0.00     0.051 C 
ATOM      2  C8  <0> d   1      -1.633  -1.555  -1.052  0.00  0.00     0.032 C 
ATOM      3  C9  <0> d   1      -2.880  -2.230  -0.991  0.00  0.00    -0.000 A 
ATOM      4  C10 <0> d   1      -3.212  -3.200  -1.948  0.00  0.00     0.017 A 
ATOM      5  C11 <0> d   1      -4.396  -3.867  -1.854  0.00  0.00     0.038 A 
ATOM      6  C12 <0> d   1      -5.288  -3.594  -0.814  0.00  0.00     0.082 A 
ATOM      7  C13 <0> d   1      -4.985  -2.628   0.129  0.00  0.00     0.038 A 
ATOM      8  C14 <0> d   1      -3.788  -1.931   0.042  0.00  0.00     0.100 A 
ATOM      9  O1  <0> d   1      -3.499  -0.952   0.934  0.00  0.00    -0.273 OA
ATOM     10  C15 <0> d   1      -2.186  -0.706   1.161  0.00  0.00     0.299 C 
ATOM     11  O2  <0> d   1      -1.777  -0.442   2.277  0.00  0.00    -0.259 OA
ATOM     12  C16 <0> d   1      -5.937  -2.323   1.257  0.00  0.00     0.319 C 
ATOM     13  N1  <0> d   1      -7.270  -2.851   0.934  0.00  0.00     0.116 N 
ATOM     14  C17 <0> d   1      -7.166  -4.251   0.490  0.00  0.00     0.447 C 
ATOM     15  O3  <0> d   1      -6.456  -4.285  -0.750  0.00  0.00    -0.321 OA
ENDROOT
BRANCH  13  16
ATOM     16  C18 <0> d   1      -8.177  -2.728   2.082  0.00  0.00     0.277 C 
BRANCH  16  17
ATOM     17  C19 <0> d   1      -9.606  -3.051   1.640  0.00  0.00     0.058 C 
BRANCH  17  18
ATOM     18  C20 <0> d   1     -10.551  -2.923   2.836  0.00  0.00     0.236 C 
BRANCH  18  19
ATOM     19  N2  <0> d   1     -11.923  -3.233   2.412  0.00  0.00    -0.067 N 
ATOM     20  C24 <0> d   1     -12.811  -3.227   3.582  0.00  0.00     0.261 C 
ATOM     21  C23 <0> d   1     -14.240  -3.551   3.137  0.00  0.00     0.195 C 
ATOM     22  O4  <0> d   1     -14.656  -2.596   2.157  0.00  0.00    -0.388 OA
ATOM     23  C22 <0> d   1     -13.807  -2.547   1.007  0.00  0.00     0.195 C 
ATOM     24  C21 <0> d   1     -12.378  -2.221   1.448  0.00  0.00     0.261 C 
ATOM     25  H26 <0> d   1     -11.943  -4.144   1.978  0.00  0.00     0.280 HD
ENDBRANCH  18  19
ENDBRANCH  17  18
ENDBRANCH  16  17
ENDBRANCH  13  16
BRANCH   1  26
ATOM     26  C6  <0> d   1       0.002  -0.004   0.002  0.00  0.00    -0.020 A 
ATOM     27  C1  <0> d   1      -0.017   1.390   0.010  0.00  0.00     0.014 A 
ATOM     28  C2  <0> d   1       1.170   2.094   0.002  0.00  0.00     0.024 A 
ATOM     29  C3  <0> d   1       2.378   1.418  -0.013  0.00  0.00     0.034 A 
ATOM     30  C4  <0> d   1       2.403   0.034  -0.021  0.00  0.00     0.024 A 
ATOM     31 Cl1  <0> d   1       3.868   2.309  -0.024  0.00  0.00    -0.084 Cl
ATOM     32  C5  <0> d   1       1.222  -0.680  -0.013  0.00  0.00     0.014 A 
ENDBRANCH   1  26
TORSDOF 5
