REMARK  6 active torsions:
REMARK  status: ('A' for Active; 'I' for Inactive)
REMARK    1  A    between atoms: O1_2  and  C2_3 
REMARK    2  A    between atoms: C7_8  and  C8_9 
REMARK    3  A    between atoms: C9_10  and  C12_19 
REMARK    4  A    between atoms: C10_14  and  C11_15 
REMARK    5  A    between atoms: C15_22  and  O3_26 
REMARK    6  A    between atoms: C17_24  and  O2_25 
ROOT
ATOM      1  C8  <0> d   1       0.064  -2.830  -0.055  0.00  0.00     0.041 A 
ATOM      2  C9  <0> d   1      -1.241  -3.304  -0.011  0.00  0.00     0.076 A 
ATOM      3  N1  <0> d   1      -1.367  -4.016   1.145  0.00  0.00    -0.276 N 
ATOM      4  H1  <0> d   1      -2.168  -4.469   1.451  0.00  0.00     0.189 HD
ATOM      5  N2  <0> d   1      -0.137  -3.980   1.813  0.00  0.00    -0.169 NA
ATOM      6  C10 <0> d   1       0.714  -3.285   1.106  0.00  0.00     0.173 A 
ENDROOT
BRANCH   2   7
ATOM      7  C12 <0> d   1      -2.292  -3.079  -1.022  0.00  0.00     0.026 A 
ATOM      8  C17 <0> d   1      -2.151  -3.608  -2.312  0.00  0.00     0.081 A 
ATOM      9  C16 <0> d   1      -3.143  -3.397  -3.254  0.00  0.00     0.074 A 
ATOM     10  C15 <0> d   1      -4.268  -2.656  -2.924  0.00  0.00     0.068 A 
ATOM     11  C14 <0> d   1      -4.407  -2.126  -1.647  0.00  0.00     0.037 A 
ATOM     12  C13 <0> d   1      -3.428  -2.334  -0.700  0.00  0.00     0.019 A 
BRANCH   8  13
ATOM     13  O2  <0> d   1      -1.046  -4.329  -2.636  0.00  0.00    -0.360 OA
ATOM     14  H12 <0> d   1      -1.133  -5.278  -2.471  0.00  0.00     0.217 HD
ENDBRANCH   8  13
BRANCH  10  15
ATOM     15  O3  <0> d   1      -5.237  -2.447  -3.853  0.00  0.00    -0.361 OA
ATOM     16  H13 <0> d   1      -5.108  -1.648  -4.383  0.00  0.00     0.217 HD
ENDBRANCH  10  15
ENDBRANCH   2   7
BRANCH   1  17
ATOM     17  C7  <0> d   1       0.662  -2.002  -1.129  0.00  0.00     0.012 A 
ATOM     18  C2  <0> d   1       0.606  -0.607  -1.056  0.00  0.00     0.079 A 
ATOM     19  C3  <0> d   1       1.172   0.158  -2.062  0.00  0.00     0.037 A 
ATOM     20  C4  <0> d   1       1.786  -0.456  -3.137  0.00  0.00     0.003 A 
ATOM     21  C5  <0> d   1       1.839  -1.837  -3.216  0.00  0.00     0.001 A 
ATOM     22  C6  <0> d   1       1.278  -2.611  -2.221  0.00  0.00     0.015 A 
BRANCH  18  23
ATOM     23  O1  <0> d   1       0.002  -0.004   0.002  0.00  0.00    -0.355 OA
ATOM     24  C1  <0> d   1      -0.017   1.425   0.010  0.00  0.00     0.210 C 
ENDBRANCH  18  23
ENDBRANCH   1  17
BRANCH   6  25
ATOM     25  C11 <0> d   1       2.149  -3.014   1.475  0.00  0.00     0.437 C 
ATOM     26  F1  <0> d   1       2.224  -1.836   2.225  0.00  0.00    -0.164 F 
ATOM     27  F2  <0> d   1       2.646  -4.081   2.231  0.00  0.00    -0.164 F 
ATOM     28  F3  <0> d   1       2.911  -2.874   0.310  0.00  0.00    -0.164 F 
ENDBRANCH   6  25
TORSDOF 6
