REMARK  6 active torsions:
REMARK  status: ('A' for Active; 'I' for Inactive)
REMARK    1  A    between atoms: O1_2  and  C2_3 
REMARK    2  A    between atoms: C6_7  and  C9_11 
REMARK    3  A    between atoms: C7_8  and  O2_9 
REMARK    4  A    between atoms: C16_19  and  C18_22 
REMARK    5  A    between atoms: C18_22  and  N1_23 
REMARK    6  A    between atoms: N2_26  and  C23_29 
ROOT
ATOM      1  C9  <0> d   1      -2.572  -4.139   0.018  0.00  0.00     0.055 C 
ATOM      2  C10 <0> d   1      -3.774  -4.761   0.129  0.00  0.00     0.128 A 
ATOM      3  C11 <0> d   1      -3.995  -6.208   0.253  0.00  0.00     0.218 A 
ATOM      4  O3  <0> d   1      -3.155  -7.092   0.277  0.00  0.00    -0.284 OA
ATOM      5  C12 <0> d   1      -5.459  -6.353   0.342  0.00  0.00     0.051 A 
ATOM      6  C13 <0> d   1      -6.303  -7.457   0.473  0.00  0.00     0.021 A 
ATOM      7  C14 <0> d   1      -7.656  -7.276   0.531  0.00  0.00     0.041 A 
ATOM      8  C15 <0> d   1      -8.194  -5.994   0.460  0.00  0.00     0.118 A 
ATOM      9  C16 <0> d   1      -7.368  -4.889   0.330  0.00  0.00     0.041 A 
ATOM     10  C17 <0> d   1      -5.990  -5.055   0.270  0.00  0.00     0.101 A 
ATOM     11  O4  <0> d   1      -4.986  -4.159   0.152  0.00  0.00    -0.305 OA
ATOM     12  O5  <0> d   1      -9.540  -5.824   0.519  0.00  0.00    -0.191 OA
ENDROOT
BRANCH   9  13
ATOM     13  C18 <0> d   1      -7.964  -3.507   0.254  0.00  0.00     0.317 C 
BRANCH  13  14
ATOM     14  N1  <0> d   1      -8.085  -2.951   1.609  0.00  0.00     0.096 N 
ATOM     15  C22 <0> d   1      -8.437  -1.525   1.563  0.00  0.00     0.292 C 
ATOM     16  C21 <0> d   1      -8.375  -0.942   2.978  0.00  0.00     0.153 C 
ATOM     17  N2  <0> d   1      -9.219  -1.763   3.860  0.00  0.00    -0.375 N 
ATOM     18  C20 <0> d   1      -9.017  -3.220   3.857  0.00  0.00     0.153 C 
ATOM     19  C19 <0> d   1      -9.053  -3.714   2.407  0.00  0.00     0.292 C 
BRANCH  17  20
ATOM     20  C23 <0> d   1     -10.188  -1.174   4.678  0.00  0.00     0.069 A 
ATOM     21  C28 <0> d   1     -11.483  -0.992   4.206  0.00  0.00     0.142 A 
ATOM     22  C27 <0> d   1     -12.439  -0.415   5.021  0.00  0.00     0.044 A 
ATOM     23  F1  <0> d   1     -11.808  -1.384   2.954  0.00  0.00    -0.204 F 
ATOM     24  C26 <0> d   1     -12.105  -0.008   6.300  0.00  0.00     0.003 A 
ATOM     25  C25 <0> d   1     -10.816  -0.183   6.770  0.00  0.00     0.002 A 
ATOM     26  C24 <0> d   1      -9.857  -0.765   5.963  0.00  0.00     0.032 A 
ENDBRANCH  17  20
ENDBRANCH  13  14
ENDBRANCH   9  13
BRANCH   1  27
ATOM     27  C6  <0> d   1      -2.496  -2.674   0.064  0.00  0.00     0.003 A 
ATOM     28  C5  <0> d   1      -3.648  -1.903  -0.136  0.00  0.00     0.014 A 
ATOM     29  C4  <0> d   1      -3.571  -0.528  -0.091  0.00  0.00     0.004 A 
ATOM     30  C3  <0> d   1      -2.360   0.098   0.151  0.00  0.00     0.040 A 
ATOM     31  C2  <0> d   1      -1.211  -0.650   0.350  0.00  0.00     0.102 A 
ATOM     32  C7  <0> d   1      -1.268  -2.038   0.302  0.00  0.00     0.111 A 
BRANCH  31  33
ATOM     33  O1  <0> d   1      -0.025  -0.026   0.587  0.00  0.00    -0.353 OA
ATOM     34  C1  <0> d   1      -0.040   1.402   0.622  0.00  0.00     0.210 C 
ENDBRANCH  31  33
BRANCH  32  35
ATOM     35  O2  <0> d   1      -0.142  -2.774   0.491  0.00  0.00    -0.352 OA
ATOM     36  C8  <0> d   1       0.163  -3.160   1.833  0.00  0.00     0.210 C 
ENDBRANCH  32  35
ENDBRANCH   1  27
TORSDOF 6
