REMARK  4 active torsions:
REMARK  status: ('A' for Active; 'I' for Inactive)
REMARK    1  A    between atoms: N2_5  and  C6_8 
REMARK    2  A    between atoms: C6_8  and  C7_9 
REMARK    3  A    between atoms: C8_10  and  O4_30 
REMARK    4  A    between atoms: C14_17  and  C15_18 
ROOT
ATOM      1  C7  <0> d   1       1.679   3.183   0.002  0.00  0.00     0.038 A 
ATOM      2  C8  <0> d   1       3.038   3.452  -0.010  0.00  0.00     0.076 A 
ATOM      3  C9  <0> d   1       3.965   2.413  -0.024  0.00  0.00     0.038 A 
ATOM      4  C10 <0> d   1       3.541   1.114  -0.026  0.00  0.00     0.021 A 
ATOM      5  C11 <0> d   1       2.175   0.829  -0.014  0.00  0.00     0.051 A 
ATOM      6  C12 <0> d   1       1.231   1.868   0.000  0.00  0.00     0.101 A 
ATOM      7  O1  <0> d   1      -0.016   1.349   0.009  0.00  0.00    -0.305 OA
ATOM      8  C13 <0> d   1       0.002  -0.004   0.002  0.00  0.00     0.129 A 
ATOM      9  C14 <0> d   1      -1.086  -0.823   0.008  0.00  0.00     0.078 C 
ATOM     10  C23 <0> d   1       1.407  -0.429  -0.014  0.00  0.00     0.218 A 
ATOM     11  O3  <0> d   1       1.842  -1.569  -0.024  0.00  0.00    -0.284 OA
ENDROOT
BRANCH   9  12
ATOM     12  C15 <0> d   1      -2.389  -0.270   0.023  0.00  0.00     0.079 A 
ATOM     13  O2  <0> d   1      -2.676   1.050   0.039  0.00  0.00    -0.310 OA
ATOM     14  C22 <0> d   1      -4.013   1.228   0.047  0.00  0.00     0.086 A 
ATOM     15  C17 <0> d   1      -4.611  -0.046   0.045  0.00  0.00     0.002 A 
ATOM     16  C21 <0> d   1      -4.821   2.358   0.060  0.00  0.00     0.039 A 
ATOM     17  C16 <0> d   1      -3.550  -0.985   0.030  0.00  0.00     0.051 A 
ATOM     18  C18 <0> d   1      -6.006  -0.162   0.058  0.00  0.00     0.033 A 
ATOM     19  C19 <0> d   1      -6.780   0.964   0.071  0.00  0.00     0.011 A 
ATOM     20  C20 <0> d   1      -6.193   2.222   0.073  0.00  0.00     0.022 A 
ATOM     21 Br1  <0> d   1      -8.665   0.807   0.088  0.00  0.00    -0.051 Br
ENDBRANCH   9  12
BRANCH   1  22
ATOM     22  C6  <0> d   1       0.687   4.318   0.018  0.00  0.00     0.317 C 
BRANCH  22  23
ATOM     23  N2  <0> d   1       0.379   4.679   1.409  0.00  0.00     0.096 N 
ATOM     24  C3  <0> d   1      -0.395   5.927   1.469  0.00  0.00     0.300 C 
ATOM     25  C2  <0> d   1      -0.626   6.310   2.933  0.00  0.00     0.264 C 
ATOM     26  N1  <0> d   1      -1.336   5.219   3.615  0.00  0.00    -0.072 N 
ATOM     27  C1  <0> d   1      -1.644   5.581   5.006  0.00  0.00     0.269 C 
ATOM     28  C5  <0> d   1      -0.562   3.972   3.555  0.00  0.00     0.264 C 
ATOM     29  H22 <0> d   1      -2.289   5.054   3.091  0.00  0.00     0.279 HD
ATOM     30  C4  <0> d   1      -0.331   3.589   2.091  0.00  0.00     0.300 C 
ENDBRANCH  22  23
ENDBRANCH   1  22
BRANCH   2  31
ATOM     31  O4  <0> d   1       3.470   4.739  -0.008  0.00  0.00    -0.360 OA
ATOM     32  H21 <0> d   1       4.548   4.957  -0.018  0.00  0.00     0.217 HD
ENDBRANCH   2  31
TORSDOF 4
