REMARK  8 active torsions:
REMARK  status: ('A' for Active; 'I' for Inactive)
REMARK    1  A    between atoms: O1_2  and  C2_3 
REMARK    2  A    between atoms: C6_7  and  O2_9 
REMARK    3  A    between atoms: O2_9  and  C8_10 
REMARK    4  A    between atoms: C10_15  and  C11_16 
REMARK    5  A    between atoms: C14_19  and  O4_23 
REMARK    6  A    between atoms: O4_23  and  C17_24 
REMARK    7  A    between atoms: C17_24  and  C18_25 
REMARK       I    between atoms: C18_25  and  N3_27 
REMARK    8  A    between atoms: N3_27  and  N4_28 
ROOT
ATOM      1  C11 <0> d   1       1.902  -7.013   2.482  0.00  0.00     0.034 A 
ATOM      2  C12 <0> d   1       1.137  -6.710   1.357  0.00  0.00     0.020 A 
ATOM      3  C13 <0> d   1       0.704  -7.722   0.526  0.00  0.00     0.038 A 
ATOM      4  C14 <0> d   1       1.028  -9.043   0.806  0.00  0.00     0.072 A 
ATOM      5  C15 <0> d   1       1.789  -9.352   1.924  0.00  0.00     0.077 A 
ATOM      6  C16 <0> d   1       2.233  -8.342   2.760  0.00  0.00     0.122 A 
ATOM      7  O3  <0> d   1       2.984  -8.643   3.852  0.00  0.00    -0.191 OA
ENDROOT
BRANCH   1   8
ATOM      8  C10 <0> d   1       2.369  -5.927   3.377  0.00  0.00     0.125 A 
ATOM      9  C8  <0> d   1       2.109  -4.549   3.215  0.00  0.00     0.124 A 
ATOM     10  C9  <0> d   1       2.702  -3.892   4.240  0.00  0.00     0.149 A 
ATOM     11  N1  <0> d   1       3.321  -4.815   5.023  0.00  0.00    -0.286 N 
ATOM     12  H1  <0> d   1       3.827  -4.630   5.830  0.00  0.00     0.188 HD
ATOM     13  N2  <0> d   1       3.101  -6.079   4.461  0.00  0.00    -0.172 NA
BRANCH   9  14
ATOM     14  O2  <0> d   1       1.385  -3.982   2.211  0.00  0.00    -0.307 OA
BRANCH  14  15
ATOM     15  C6  <0> d   1       1.336  -2.626   2.147  0.00  0.00     0.079 A 
ATOM     16  C5  <0> d   1       0.153  -1.959   2.433  0.00  0.00     0.037 A 
ATOM     17  C4  <0> d   1       0.102  -0.580   2.368  0.00  0.00     0.005 A 
ATOM     18  C3  <0> d   1       1.229   0.139   2.019  0.00  0.00     0.037 A 
ATOM     19  C2  <0> d   1       2.415  -0.523   1.732  0.00  0.00     0.070 A 
ATOM     20  C7  <0> d   1       2.467  -1.906   1.791  0.00  0.00     0.074 A 
BRANCH  19  21
ATOM     21  O1  <0> d   1       3.523   0.185   1.388  0.00  0.00    -0.356 OA
ATOM     22  C1  <0> d   1       3.397   1.608   1.348  0.00  0.00     0.210 C 
ENDBRANCH  19  21
ENDBRANCH  14  15
ENDBRANCH   9  14
ENDBRANCH   1   8
BRANCH   4  23
ATOM     23  O4  <0> d   1       0.598 -10.036  -0.016  0.00  0.00    -0.342 OA
BRANCH  23  24
ATOM     24  C17 <0> d   1       0.967 -11.372   0.331  0.00  0.00     0.279 C 
BRANCH  24  25
ATOM     25  C18 <0> d   1       0.406 -12.329  -0.688  0.00  0.00     0.255 C 
ATOM     26  O5  <0> d   1      -0.247 -11.909  -1.620  0.00  0.00    -0.270 OA
ATOM     27  N3  <0> d   1       0.628 -13.652  -0.564  0.00  0.00    -0.292 N 
ATOM     28  H15 <0> d   1       1.150 -13.989   0.181  0.00  0.00     0.183 HD
BRANCH  27  29
ATOM     29  N4  <0> d   1       0.119 -14.520  -1.488  0.00  0.00    -0.247 NA
ATOM     30  H16 <0> d   1       0.366 -15.473  -1.264  0.00  0.00     0.143 HD
ATOM     31  H17 <0> d   1      -0.881 -14.416  -1.569  0.00  0.00     0.143 HD
ENDBRANCH  27  29
ENDBRANCH  24  25
ENDBRANCH  23  24
ENDBRANCH   4  23
TORSDOF 8
