REMARK  4 active torsions:
REMARK  status: ('A' for Active; 'I' for Inactive)
REMARK    1  A    between atoms: C8_8  and  C11_13 
REMARK    2  A    between atoms: C11_13  and  N1_14 
REMARK    3  A    between atoms: N2_17  and  C16_20 
REMARK    4  A    between atoms: C16_20  and  C17_21 
ROOT
ATOM      1  N1  <0> d   1       1.428  -1.797   4.133  0.00  0.00     0.096 N 
ATOM      2  C12 <0> d   1       2.233  -3.002   4.378  0.00  0.00     0.300 C 
ATOM      3  C13 <0> d   1       3.671  -2.594   4.702  0.00  0.00     0.265 C 
ATOM      4  N2  <0> d   1       3.679  -1.729   5.889  0.00  0.00    -0.064 N 
ATOM      5  C14 <0> d   1       2.892  -0.518   5.620  0.00  0.00     0.265 C 
ATOM      6  C15 <0> d   1       1.447  -0.909   5.304  0.00  0.00     0.300 C 
ATOM      7  H25 <0> d   1       3.277  -2.225   6.669  0.00  0.00     0.280 HD
ENDROOT
BRANCH   1   8
ATOM      8  C11 <0> d   1       0.051  -2.150   3.762  0.00  0.00     0.312 C 
BRANCH   8   9
ATOM      9  C8  <0> d   1       0.053  -2.850   2.428  0.00  0.00    -0.011 A 
ATOM     10  C6  <0> d   1       0.037  -2.087   1.176  0.00  0.00     0.007 A 
ATOM     11  C5  <0> d   1       0.041  -2.781  -0.046  0.00  0.00     0.090 A 
ATOM     12  C7  <0> d   1       0.023  -0.689   1.185  0.00  0.00     0.021 A 
ATOM     13  C4  <0> d   1       0.025  -2.065  -1.236  0.00  0.00     0.039 A 
ATOM     14  O2  <0> d   1       0.059  -4.131  -0.052  0.00  0.00    -0.275 OA
ATOM     15  C3  <0> d   1       0.006  -0.686  -1.206  0.00  0.00     0.009 A 
ATOM     16  C2  <0> d   1       0.002  -0.004   0.002  0.00  0.00    -0.061 A 
ATOM     17  C1  <0> d   1      -0.018   1.503   0.010  0.00  0.00     0.048 C 
ATOM     18  C10 <0> d   1       0.074  -4.837   1.089  0.00  0.00     0.288 A 
ATOM     19  C9  <0> d   1       0.072  -4.205   2.351  0.00  0.00     0.092 A 
ATOM     20  O1  <0> d   1       0.091  -6.053   1.034  0.00  0.00    -0.260 OA
ENDBRANCH   8   9
ENDBRANCH   1   8
BRANCH   4  21
ATOM     21  C16 <0> d   1       5.062  -1.352   6.210  0.00  0.00     0.273 C 
BRANCH  21  22
ATOM     22  C17 <0> d   1       5.083  -0.567   7.497  0.00  0.00    -0.033 A 
ATOM     23  C22 <0> d   1       5.226  -1.224   8.704  0.00  0.00     0.009 A 
ATOM     24  C21 <0> d   1       5.250  -0.503   9.884  0.00  0.00     0.001 A 
ATOM     25  C20 <0> d   1       5.121   0.873   9.857  0.00  0.00     0.000 A 
ATOM     26  C19 <0> d   1       4.972   1.529   8.649  0.00  0.00     0.001 A 
ATOM     27  C18 <0> d   1       4.953   0.809   7.469  0.00  0.00     0.009 A 
ENDBRANCH  21  22
ENDBRANCH   4  21
TORSDOF 4
