REMARK  8 active torsions:
REMARK  status: ('A' for Active; 'I' for Inactive)
REMARK    1  A    between atoms: C2_2  and  N1_3 
REMARK    2  A    between atoms: C4_5  and  C12_14 
REMARK    3  A    between atoms: C9_10  and  O1_12 
REMARK    4  A    between atoms: C19_22  and  C21_25 
REMARK    5  A    between atoms: C21_25  and  N2_26 
REMARK    6  A    between atoms: N3_29  and  C26_32 
REMARK    7  A    between atoms: C26_32  and  C27_33 
REMARK    8  A    between atoms: C27_33  and  O4_34 
ROOT
ATOM      1  C12 <0> d   1      -2.482   5.180  -0.109  0.00  0.00     0.055 C 
ATOM      2  C13 <0> d   1      -1.528   4.207  -0.083  0.00  0.00     0.128 A 
ATOM      3  C14 <0> d   1      -0.124   4.421  -0.083  0.00  0.00     0.218 A 
ATOM      4  O2  <0> d   1       0.462   5.491  -0.106  0.00  0.00    -0.284 OA
ATOM      5  C15 <0> d   1       0.472   3.075  -0.050  0.00  0.00     0.051 A 
ATOM      6  C16 <0> d   1       1.786   2.605  -0.036  0.00  0.00     0.021 A 
ATOM      7  C17 <0> d   1       2.027   1.261  -0.005  0.00  0.00     0.041 A 
ATOM      8  C18 <0> d   1       0.967   0.358   0.013  0.00  0.00     0.118 A 
ATOM      9  C19 <0> d   1      -0.342   0.810  -0.001  0.00  0.00     0.039 A 
ATOM     10  C20 <0> d   1      -0.605   2.173  -0.033  0.00  0.00     0.101 A 
ATOM     11  O3  <0> d   1      -1.759   2.873  -0.058  0.00  0.00    -0.305 OA
ATOM     12  O5  <0> d   1       1.219  -0.975   0.044  0.00  0.00    -0.191 OA
ENDROOT
BRANCH   1  13
ATOM     13  C4  <0> d   1      -3.897   4.816  -0.105  0.00  0.00    -0.005 A 
ATOM     14  C3  <0> d   1      -4.423   3.542  -0.076  0.00  0.00     0.103 A 
ATOM     15  N1  <0> d   1      -5.777   3.611  -0.082  0.00  0.00    -0.356 N 
ATOM     16  C6  <0> d   1      -6.194   4.928  -0.114  0.00  0.00     0.045 A 
ATOM     17  C5  <0> d   1      -5.048   5.739  -0.124  0.00  0.00     0.005 A 
ATOM     18  C7  <0> d   1      -7.452   5.522  -0.131  0.00  0.00     0.033 A 
ATOM     19  C10 <0> d   1      -5.172   7.125  -0.162  0.00  0.00     0.051 A 
ATOM     20  C9  <0> d   1      -6.430   7.699  -0.179  0.00  0.00     0.069 A 
ATOM     21  C8  <0> d   1      -7.565   6.895  -0.164  0.00  0.00     0.039 A 
BRANCH  15  22
ATOM     22  C2  <0> d   1      -6.672   2.452  -0.056  0.00  0.00     0.124 C 
ATOM     23  C1  <0> d   1      -7.079   2.091  -1.486  0.00  0.00     0.027 C 
ENDBRANCH  15  22
BRANCH  20  24
ATOM     24  O1  <0> d   1      -6.558   9.052  -0.211  0.00  0.00    -0.356 OA
ATOM     25  C11 <0> d   1      -7.886   9.579  -0.227  0.00  0.00     0.210 C 
ENDBRANCH  20  24
ENDBRANCH   1  13
BRANCH   9  26
ATOM     26  C21 <0> d   1      -1.481  -0.177   0.017  0.00  0.00     0.279 C 
BRANCH  26  27
ATOM     27  N2  <0> d   1      -1.846  -0.529  -1.361  0.00  0.00    -0.064 N 
ATOM     28  C25 <0> d   1      -2.785  -1.660  -1.385  0.00  0.00     0.265 C 
ATOM     29  C24 <0> d   1      -3.078  -2.046  -2.837  0.00  0.00     0.300 C 
ATOM     30  N3  <0> d   1      -3.636  -0.886  -3.546  0.00  0.00     0.093 N 
ATOM     31  C23 <0> d   1      -2.698   0.244  -3.522  0.00  0.00     0.300 C 
ATOM     32  C22 <0> d   1      -2.405   0.630  -2.071  0.00  0.00     0.265 C 
ATOM     33  H31 <0> d   1      -0.929  -0.839  -1.884  0.00  0.00     0.280 HD
BRANCH  30  34
ATOM     34  C26 <0> d   1      -4.002  -1.238  -4.925  0.00  0.00     0.298 C 
BRANCH  34  35
ATOM     35  C27 <0> d   1      -5.300  -2.048  -4.917  0.00  0.00     0.194 C 
BRANCH  35  36
ATOM     36  O4  <0> d   1      -6.368  -1.232  -4.433  0.00  0.00    -0.399 OA
ATOM     37  H30 <0> d   1      -7.385  -1.644  -4.356  0.00  0.00     0.209 HD
ENDBRANCH  35  36
ENDBRANCH  34  35
ENDBRANCH  30  34
ENDBRANCH  26  27
ENDBRANCH   9  26
TORSDOF 8
