REMARK  8 active torsions:
REMARK  status: ('A' for Active; 'I' for Inactive)
REMARK    1  A    between atoms: N1_4  and  C7_9 
REMARK    2  A    between atoms: C7_9  and  C8_10 
REMARK    3  A    between atoms: C8_10  and  O2_11 
REMARK    4  A    between atoms: O2_11  and  C9_12 
REMARK    5  A    between atoms: C12_15  and  C15_19 
REMARK    6  A    between atoms: C16_20  and  C18_25 
REMARK    7  A    between atoms: C21_28  and  O5_33 
REMARK    8  A    between atoms: C22_29  and  O4_31 
ROOT
ATOM      1  C9  <0> d   1      -2.070  -6.103   0.847  0.00  0.00     0.071 A 
ATOM      2  C10 <0> d   1      -2.275  -6.711  -0.386  0.00  0.00     0.038 A 
ATOM      3  C11 <0> d   1      -2.135  -8.076  -0.517  0.00  0.00     0.019 A 
ATOM      4  C12 <0> d   1      -1.787  -8.851   0.588  0.00  0.00     0.032 A 
ATOM      5  C13 <0> d   1      -1.579  -8.238   1.828  0.00  0.00     0.122 A 
ATOM      6  C14 <0> d   1      -1.717  -6.866   1.950  0.00  0.00     0.077 A 
ATOM      7  O3  <0> d   1      -1.239  -8.987   2.909  0.00  0.00    -0.191 OA
ENDROOT
BRANCH   4   8
ATOM      8  C15 <0> d   1      -1.636 -10.319   0.450  0.00  0.00     0.102 A 
ATOM      9  C16 <0> d   1      -2.556 -11.197  -0.176  0.00  0.00     0.022 A 
ATOM     10  C17 <0> d   1      -2.044 -12.457  -0.089  0.00  0.00     0.124 A 
ATOM     11  N2  <0> d   1      -0.862 -12.379   0.558  0.00  0.00    -0.288 N 
ATOM     12  H3  <0> d   1      -0.277 -13.125   0.761  0.00  0.00     0.188 HD
ATOM     13  N3  <0> d   1      -0.622 -11.038   0.880  0.00  0.00    -0.174 NA
BRANCH   9  14
ATOM     14  C18 <0> d   1      -3.842 -10.815  -0.810  0.00  0.00    -0.019 A 
ATOM     15  C23 <0> d   1      -4.109 -11.187  -2.126  0.00  0.00     0.052 A 
ATOM     16  C22 <0> d   1      -5.312 -10.833  -2.712  0.00  0.00     0.102 A 
ATOM     17  C21 <0> d   1      -6.248 -10.098  -1.989  0.00  0.00     0.101 A 
ATOM     18  C20 <0> d   1      -5.979  -9.724  -0.681  0.00  0.00     0.040 A 
ATOM     19  C19 <0> d   1      -4.782 -10.079  -0.092  0.00  0.00     0.015 A 
BRANCH  16  20
ATOM     20  O4  <0> d   1      -5.578 -11.199  -3.994  0.00  0.00    -0.353 OA
ATOM     21  C24 <0> d   1      -4.572 -11.952  -4.676  0.00  0.00     0.210 C 
ENDBRANCH  16  20
BRANCH  17  22
ATOM     22  O5  <0> d   1      -7.428  -9.747  -2.567  0.00  0.00    -0.353 OA
ATOM     23  C25 <0> d   1      -8.342  -8.994  -1.768  0.00  0.00     0.210 C 
ENDBRANCH  17  22
ENDBRANCH   9  14
ENDBRANCH   4   8
BRANCH   1  24
ATOM     24  O2  <0> d   1      -2.209  -4.757   0.970  0.00  0.00    -0.349 OA
BRANCH  24  25
ATOM     25  C8  <0> d   1      -2.574  -4.032  -0.207  0.00  0.00     0.206 C 
BRANCH  25  26
ATOM     26  C7  <0> d   1      -2.683  -2.543   0.125  0.00  0.00     0.299 C 
BRANCH  26  27
ATOM     27  N1  <0> d   1      -1.365  -2.034   0.528  0.00  0.00     0.095 N 
ATOM     28  C3  <0> d   1      -0.492  -1.849  -0.640  0.00  0.00     0.303 C 
ATOM     29  C2  <0> d   1       0.886  -1.376  -0.171  0.00  0.00     0.146 C 
ATOM     30  C1  <0> d   1       1.775  -1.105  -1.387  0.00  0.00     0.041 C 
ATOM     31  O1  <0> d   1       0.739  -0.174   0.590  0.00  0.00    -0.378 OA
ATOM     32  C5  <0> d   1      -0.105  -0.317   1.735  0.00  0.00     0.146 C 
ATOM     33  C4  <0> d   1      -1.493  -0.780   1.285  0.00  0.00     0.303 C 
ATOM     34  C6  <0> d   1       0.496  -1.354   2.686  0.00  0.00     0.041 C 
ENDBRANCH  26  27
ENDBRANCH  25  26
ENDBRANCH  24  25
ENDBRANCH   1  24
TORSDOF 8
