REMARK  6 active torsions:
REMARK  status: ('A' for Active; 'I' for Inactive)
REMARK    1  A    between atoms: O1_2  and  C2_3 
REMARK    2  A    between atoms: C7_8  and  O2_9 
REMARK    3  A    between atoms: O2_9  and  C8_10 
REMARK    4  A    between atoms: N1_22  and  C19_25 
REMARK    5  A    between atoms: C19_25  and  C20_26 
REMARK    6  A    between atoms: C20_26  and  N2_27 
ROOT
ATOM      1  C8  <0> d   1      -0.424  -0.500   7.278  0.00  0.00     0.149 A 
ATOM      2  C9  <0> d   1      -0.045  -1.010   6.091  0.00  0.00     0.184 A 
ATOM      3  O3  <0> d   1      -0.053  -0.321   4.948  0.00  0.00    -0.318 OA
ATOM      4  C10 <0> d   1      -0.453   0.964   4.912  0.00  0.00     0.100 A 
ATOM      5  C11 <0> d   1      -0.873   1.613   6.085  0.00  0.00     0.051 A 
ATOM      6  C12 <0> d   1      -0.865   0.853   7.347  0.00  0.00     0.220 A 
ATOM      7  O4  <0> d   1      -1.218   1.358   8.400  0.00  0.00    -0.284 OA
ATOM      8  C13 <0> d   1      -1.286   2.945   6.044  0.00  0.00     0.021 A 
ATOM      9  C14 <0> d   1      -1.282   3.619   4.857  0.00  0.00     0.038 A 
ATOM     10  C15 <0> d   1      -0.867   2.985   3.684  0.00  0.00     0.082 A 
ATOM     11  C16 <0> d   1      -0.454   1.666   3.711  0.00  0.00     0.038 A 
ATOM     12  C17 <0> d   1      -0.000   0.972   2.452  0.00  0.00     0.319 C 
ATOM     13  N1  <0> d   1      -0.462   1.727   1.278  0.00  0.00     0.117 N 
ATOM     14  C18 <0> d   1      -0.125   3.153   1.429  0.00  0.00     0.447 C 
ATOM     15  O5  <0> d   1      -0.880   3.686   2.520  0.00  0.00    -0.321 OA
ENDROOT
BRANCH   1  16
ATOM     16  O2  <0> d   1      -0.387  -1.270   8.400  0.00  0.00    -0.302 OA
BRANCH  16  17
ATOM     17  C7  <0> d   1       0.144  -2.518   8.301  0.00  0.00     0.109 A 
ATOM     18  C2  <0> d   1       1.517  -2.704   8.433  0.00  0.00     0.102 A 
ATOM     19  C3  <0> d   1       2.053  -3.978   8.331  0.00  0.00     0.039 A 
ATOM     20  C4  <0> d   1       1.224  -5.060   8.099  0.00  0.00     0.003 A 
ATOM     21  C5  <0> d   1      -0.140  -4.875   7.968  0.00  0.00     0.003 A 
ATOM     22  C6  <0> d   1      -0.682  -3.607   8.074  0.00  0.00     0.040 A 
BRANCH  18  23
ATOM     23  O1  <0> d   1       2.330  -1.639   8.662  0.00  0.00    -0.353 OA
ATOM     24  C1  <0> d   1       3.729  -1.906   8.786  0.00  0.00     0.210 C 
ENDBRANCH  18  23
ENDBRANCH  16  17
ENDBRANCH   1  16
BRANCH  13  25
ATOM     25  C19 <0> d   1       0.110   1.179   0.041  0.00  0.00     0.305 C 
BRANCH  25  26
ATOM     26  C20 <0> d   1      -0.577   1.820  -1.166  0.00  0.00     0.302 C 
BRANCH  26  27
ATOM     27  N2  <0> d   1      -0.005   1.273  -2.403  0.00  0.00     0.094 N 
ATOM     28  C24 <0> d   1      -0.794   1.682  -3.575  0.00  0.00     0.298 C 
ATOM     29  C23 <0> d   1      -0.199   1.042  -4.832  0.00  0.00     0.198 C 
ATOM     30  O6  <0> d   1       1.176   1.417  -4.947  0.00  0.00    -0.388 OA
ATOM     31  C22 <0> d   1       1.974   1.034  -3.824  0.00  0.00     0.198 C 
ATOM     32  C21 <0> d   1       1.401   1.673  -2.556  0.00  0.00     0.298 C 
ENDBRANCH  26  27
ENDBRANCH  25  26
ENDBRANCH  13  25
TORSDOF 6
