REMARK  2 active torsions:
REMARK  status: ('A' for Active; 'I' for Inactive)
REMARK    1  A    between atoms: C7_8  and  C8_10 
REMARK    2  A    between atoms: N2_11  and  O1_12 
ROOT
ATOM      1  C8  <0> d   1       2.978  -4.020  -0.049  0.00  0.00     0.199 C 
ATOM      2  N2  <0> d   1       4.232  -4.373  -0.063  0.00  0.00    -0.122 NA
ATOM      3  C9  <0> d   1       1.952  -5.020  -0.045  0.00  0.00     0.125 C 
ATOM      4  N3  <0> d   1       1.139  -5.813  -0.041  0.00  0.00    -0.190 NA
ENDROOT
BRANCH   1   5
ATOM      5  C7  <0> d   1       2.613  -2.588  -0.037  0.00  0.00     0.140 A 
ATOM      6  N1  <0> d   1       1.417  -2.040  -0.023  0.00  0.00    -0.237 NA
ATOM      7  C5  <0> d   1       1.228  -0.713  -0.013  0.00  0.00     0.075 A 
ATOM      8  C4  <0> d   1       2.404   0.076  -0.020  0.00  0.00     0.035 A 
ATOM      9  C6  <0> d   1       0.002  -0.004   0.002  0.00  0.00     0.033 A 
ATOM     10  C3  <0> d   1       2.373   1.449  -0.013  0.00  0.00     0.021 A 
ATOM     11  S1  <0> d   1       3.684  -1.157  -0.040  0.00  0.00    -0.065 SA
ATOM     12  C2  <0> d   1       1.155   2.101   0.002  0.00  0.00     0.002 A 
ATOM     13  C1  <0> d   1      -0.016   1.355   0.009  0.00  0.00     0.002 A 
ENDBRANCH   1   5
BRANCH   2  14
ATOM     14  O1  <0> d   1       4.582  -5.745  -0.074  0.00  0.00    -0.265 OA
ATOM     15  H5  <0> d   1       5.535  -5.908  -0.084  0.00  0.00     0.247 HD
ENDBRANCH   2  14
TORSDOF 2
