REMARK  10 active torsions:
REMARK  status: ('A' for Active; 'I' for Inactive)
REMARK    1  A    between atoms: C6_6  and  O5_23 
REMARK    2  A    between atoms: C10_12  and  C11_13 
REMARK    3  A    between atoms: C14_16  and  O4_21 
REMARK    4  A    between atoms: C15_17  and  O3_19 
REMARK    5  A    between atoms: O5_23  and  C19_24 
REMARK    6  A    between atoms: C19_24  and  C20_25 
REMARK    7  A    between atoms: C20_25  and  N1_26 
REMARK    8  A    between atoms: N2_29  and  C25_32 
REMARK    9  A    between atoms: C25_32  and  C26_33 
REMARK   10  A    between atoms: C26_33  and  O6_34 
ROOT
ATOM      1  C1  <0> d   1       0.102   1.405   0.077  0.00  0.00     0.050 C 
ATOM      2  C2  <0> d   1       0.228  -0.096   0.049  0.00  0.00    -0.032 C 
ATOM      3  C3  <0> d   1       0.208  -0.806  -1.180  0.00  0.00     0.005 A 
ATOM      4  C4  <0> d   1       0.273  -0.117  -2.400  0.00  0.00     0.017 A 
ATOM      5  C5  <0> d   1       0.293  -0.814  -3.573  0.00  0.00     0.038 A 
ATOM      6  C6  <0> d   1       0.243  -2.207  -3.570  0.00  0.00     0.071 A 
ATOM      7  C7  <0> d   1       0.159  -2.904  -2.375  0.00  0.00     0.075 A 
ATOM      8  C8  <0> d   1       0.130  -2.211  -1.175  0.00  0.00     0.093 A 
ATOM      9  O1  <0> d   1       0.007  -2.877  -0.001  0.00  0.00    -0.274 OA
ATOM     10  C9  <0> d   1       0.516  -2.273   1.098  0.00  0.00     0.300 C 
ATOM     11  O2  <0> d   1       1.081  -2.916   1.963  0.00  0.00    -0.259 OA
ATOM     12  C10 <0> d   1       0.370  -0.813   1.211  0.00  0.00     0.057 C 
ENDROOT
BRANCH   6  13
ATOM     13  O5  <0> d   1       0.276  -2.885  -4.745  0.00  0.00    -0.349 OA
BRANCH  13  14
ATOM     14  C19 <0> d   1       0.362  -2.107  -5.941  0.00  0.00     0.206 C 
BRANCH  14  15
ATOM     15  C20 <0> d   1       0.388  -3.039  -7.154  0.00  0.00     0.299 C 
BRANCH  15  16
ATOM     16  N1  <0> d   1      -0.892  -3.755  -7.249  0.00  0.00     0.093 N 
ATOM     17  C24 <0> d   1      -1.950  -2.876  -7.767  0.00  0.00     0.302 C 
ATOM     18  C23 <0> d   1      -3.280  -3.634  -7.775  0.00  0.00     0.302 C 
ATOM     19  N2  <0> d   1      -3.148  -4.839  -8.605  0.00  0.00     0.093 N 
ATOM     20  C22 <0> d   1      -2.090  -5.718  -8.087  0.00  0.00     0.302 C 
ATOM     21  C21 <0> d   1      -0.760  -4.960  -8.079  0.00  0.00     0.302 C 
BRANCH  19  22
ATOM     22  C25 <0> d   1      -4.427  -5.555  -8.700  0.00  0.00     0.298 C 
BRANCH  22  23
ATOM     23  C26 <0> d   1      -5.436  -4.698  -9.467  0.00  0.00     0.194 C 
BRANCH  23  24
ATOM     24  O6  <0> d   1      -4.993  -4.535 -10.816  0.00  0.00    -0.399 OA
ATOM     25  H32 <0> d   1      -5.586  -4.000 -11.362  0.00  0.00     0.209 HD
ENDBRANCH  23  24
ENDBRANCH  22  23
ENDBRANCH  19  22
ENDBRANCH  15  16
ENDBRANCH  14  15
ENDBRANCH  13  14
ENDBRANCH   6  13
BRANCH  12  26
ATOM     26  C11 <0> d   1       0.371  -0.142   2.532  0.00  0.00    -0.017 A 
ATOM     27  C16 <0> d   1      -0.652  -0.394   3.445  0.00  0.00     0.052 A 
ATOM     28  C15 <0> d   1      -0.644   0.230   4.679  0.00  0.00     0.102 A 
ATOM     29  C14 <0> d   1       0.380   1.117   5.003  0.00  0.00     0.101 A 
ATOM     30  C13 <0> d   1       1.394   1.372   4.093  0.00  0.00     0.040 A 
ATOM     31  C12 <0> d   1       1.393   0.748   2.862  0.00  0.00     0.015 A 
BRANCH  28  32
ATOM     32  O3  <0> d   1      -1.637  -0.018   5.574  0.00  0.00    -0.353 OA
ATOM     33  C17 <0> d   1      -2.655  -0.939   5.175  0.00  0.00     0.210 C 
ENDBRANCH  28  32
BRANCH  29  34
ATOM     34  O4  <0> d   1       0.385   1.734   6.215  0.00  0.00    -0.353 OA
ATOM     35  C18 <0> d   1       1.464   2.631   6.482  0.00  0.00     0.210 C 
ENDBRANCH  29  34
ENDBRANCH  12  26
TORSDOF 10
