REMARK  10 active torsions:
REMARK  status: ('A' for Active; 'I' for Inactive)
REMARK    1  A    between atoms: C3_3  and  C24_31 
REMARK    2  A    between atoms: C4_4  and  C5_8 
REMARK    3  A    between atoms: C8_11  and  O2_15 
REMARK    4  A    between atoms: C10_13  and  O1_14 
REMARK    5  A    between atoms: O2_15  and  C11_16 
REMARK    6  A    between atoms: C11_16  and  C12_17 
REMARK    7  A    between atoms: C12_17  and  N3_18 
REMARK    8  A    between atoms: N4_21  and  C17_24 
REMARK    9  A    between atoms: C17_24  and  C18_25 
REMARK   10  A    between atoms: C27_34  and  O3_37 
ROOT
ATOM      1  C5  <0> d   1       0.248  -3.213  -1.685  0.00  0.00     0.029 A 
ATOM      2  C6  <0> d   1       0.354  -2.964  -3.052  0.00  0.00     0.019 A 
ATOM      3  C7  <0> d   1       0.473  -4.015  -3.937  0.00  0.00     0.038 A 
ATOM      4  C8  <0> d   1       0.488  -5.323  -3.469  0.00  0.00     0.071 A 
ATOM      5  C9  <0> d   1       0.383  -5.579  -2.110  0.00  0.00     0.074 A 
ATOM      6  C10 <0> d   1       0.269  -4.530  -1.214  0.00  0.00     0.081 A 
ENDROOT
BRANCH   4   7
ATOM      7  O2  <0> d   1       0.605  -6.354  -4.346  0.00  0.00    -0.349 OA
BRANCH   7   8
ATOM      8  C11 <0> d   1       0.708  -6.019  -5.731  0.00  0.00     0.206 C 
BRANCH   8   9
ATOM      9  C12 <0> d   1       0.832  -7.301  -6.558  0.00  0.00     0.299 C 
BRANCH   9  10
ATOM     10  N3  <0> d   1      -0.406  -8.082  -6.438  0.00  0.00     0.093 N 
ATOM     11  C16 <0> d   1      -0.242  -9.422  -7.019  0.00  0.00     0.300 C 
ATOM     12  C15 <0> d   1      -1.532 -10.222  -6.821  0.00  0.00     0.265 C 
ATOM     13  N4  <0> d   1      -2.647  -9.522  -7.471  0.00  0.00    -0.064 N 
ATOM     14  C14 <0> d   1      -2.815  -8.195  -6.863  0.00  0.00     0.265 C 
ATOM     15  H35 <0> d   1      -2.452  -9.418  -8.455  0.00  0.00     0.280 HD
ATOM     16  C13 <0> d   1      -1.536  -7.378  -7.061  0.00  0.00     0.300 C 
BRANCH  13  17
ATOM     17  C17 <0> d   1      -3.881 -10.299  -7.296  0.00  0.00     0.273 C 
BRANCH  17  18
ATOM     18  C18 <0> d   1      -3.755 -11.613  -8.024  0.00  0.00    -0.033 A 
ATOM     19  C23 <0> d   1      -3.241 -12.718  -7.372  0.00  0.00     0.009 A 
ATOM     20  C22 <0> d   1      -3.129 -13.924  -8.039  0.00  0.00     0.001 A 
ATOM     21  C21 <0> d   1      -3.523 -14.022  -9.360  0.00  0.00     0.000 A 
ATOM     22  C20 <0> d   1      -4.032 -12.915 -10.014  0.00  0.00     0.001 A 
ATOM     23  C19 <0> d   1      -4.148 -11.711  -9.346  0.00  0.00     0.009 A 
ENDBRANCH  17  18
ENDBRANCH  13  17
ENDBRANCH   9  10
ENDBRANCH   8   9
ENDBRANCH   7   8
ENDBRANCH   4   7
BRANCH   6  24
ATOM     24  O1  <0> d   1       0.172  -4.779   0.118  0.00  0.00    -0.360 OA
ATOM     25  H8  <0> d   1      -0.735  -4.890   0.432  0.00  0.00     0.217 HD
ENDBRANCH   6  24
BRANCH   1  26
ATOM     26  C4  <0> d   1       0.121  -2.084  -0.732  0.00  0.00     0.103 A 
ATOM     27  C3  <0> d   1      -0.761  -0.982  -0.856  0.00  0.00     0.029 A 
ATOM     28  C2  <0> d   1      -0.565  -0.176   0.226  0.00  0.00     0.037 A 
ATOM     29  C1  <0> d   1      -1.287   1.114   0.514  0.00  0.00     0.070 C 
ATOM     30  N2  <0> d   1       0.396  -0.737   0.990  0.00  0.00    -0.281 N 
ATOM     31  N1  <0> d   1       0.807  -1.928   0.380  0.00  0.00    -0.173 NA
ATOM     32  H1  <0> d   1       0.741  -0.377   1.821  0.00  0.00     0.189 HD
BRANCH  27  33
ATOM     33  C24 <0> d   1      -1.724  -0.748  -1.960  0.00  0.00    -0.021 A 
ATOM     34  C29 <0> d   1      -1.543   0.327  -2.829  0.00  0.00     0.015 A 
ATOM     35  C28 <0> d   1      -2.436   0.537  -3.859  0.00  0.00     0.037 A 
ATOM     36  C27 <0> d   1      -3.521  -0.313  -4.023  0.00  0.00     0.068 A 
ATOM     37  C26 <0> d   1      -3.707  -1.380  -3.156  0.00  0.00     0.037 A 
ATOM     38  C25 <0> d   1      -2.814  -1.600  -2.128  0.00  0.00     0.015 A 
BRANCH  36  39
ATOM     39  O3  <0> d   1      -4.402  -0.099  -5.036  0.00  0.00    -0.356 OA
ATOM     40  C30 <0> d   1      -4.150   1.018  -5.891  0.00  0.00     0.210 C 
ENDBRANCH  36  39
ENDBRANCH  27  33
ENDBRANCH   1  26
TORSDOF 10
