REMARK  4 active torsions:
REMARK  status: ('A' for Active; 'I' for Inactive)
REMARK    1  A    between atoms: N2_5  and  C6_8 
REMARK    2  A    between atoms: C6_8  and  C7_9 
REMARK    3  A    between atoms: C8_10  and  O5_32 
REMARK    4  A    between atoms: C15_19  and  C16_20 
ROOT
ATOM      1  C7  <0> d   1      -1.146   8.494   2.219  0.00  0.00     0.038 A 
ATOM      2  C8  <0> d   1      -1.627   7.809   3.323  0.00  0.00     0.076 A 
ATOM      3  C9  <0> d   1      -1.600   6.417   3.358  0.00  0.00     0.038 A 
ATOM      4  C10 <0> d   1      -1.098   5.709   2.303  0.00  0.00     0.018 A 
ATOM      5  C11 <0> d   1      -0.609   6.385   1.183  0.00  0.00     0.010 A 
ATOM      6  C12 <0> d   1      -0.633   7.789   1.140  0.00  0.00     0.101 A 
ATOM      7  O1  <0> d   1      -0.159   8.440   0.056  0.00  0.00    -0.274 OA
ATOM      8  C13 <0> d   1       0.343   7.785  -1.002  0.00  0.00     0.289 A 
ATOM      9  O2  <0> d   1       0.756   8.425  -1.954  0.00  0.00    -0.260 OA
ATOM     10  C14 <0> d   1       0.410   6.384  -1.043  0.00  0.00     0.096 A 
ATOM     11  C15 <0> d   1      -0.062   5.648   0.031  0.00  0.00    -0.001 A 
ENDROOT
BRANCH  11  12
ATOM     12  C16 <0> d   1      -0.013   4.173   0.024  0.00  0.00     0.052 A 
ATOM     13  C24 <0> d   1      -1.252   3.385   0.031  0.00  0.00     0.299 A 
ATOM     14  O3  <0> d   1      -1.197   2.043   0.030  0.00  0.00    -0.274 OA
ATOM     15  O4  <0> d   1      -2.330   3.949   0.044  0.00  0.00    -0.259 OA
ATOM     16  C23 <0> d   1      -0.017   1.387   0.010  0.00  0.00     0.089 A 
ATOM     17  C18 <0> d   1       1.200   2.091   0.002  0.00  0.00     0.000 A 
ATOM     18  C22 <0> d   1       0.002  -0.004   0.002  0.00  0.00     0.039 A 
ATOM     19  C17 <0> d   1       1.199   3.510   0.009  0.00  0.00     0.032 A 
ATOM     20  C19 <0> d   1       2.413   1.386  -0.013  0.00  0.00     0.033 A 
ATOM     21  C20 <0> d   1       2.406   0.021  -0.020  0.00  0.00     0.011 A 
ATOM     22  C21 <0> d   1       1.205  -0.677  -0.013  0.00  0.00     0.022 A 
ATOM     23 Br1  <0> d   1       4.042  -0.927  -0.039  0.00  0.00    -0.051 Br
ENDBRANCH  11  12
BRANCH   1  24
ATOM     24  C6  <0> d   1      -1.180  10.000   2.191  0.00  0.00     0.317 C 
BRANCH  24  25
ATOM     25  N2  <0> d   1      -2.451  10.450   1.609  0.00  0.00     0.096 N 
ATOM     26  C3  <0> d   1      -2.625  11.900   1.779  0.00  0.00     0.303 C 
ATOM     27  C2  <0> d   1      -3.993  12.315   1.232  0.00  0.00     0.302 C 
ATOM     28  N1  <0> d   1      -4.085  11.940  -0.186  0.00  0.00     0.087 N 
ATOM     29  C1  <0> d   1      -5.356  12.390  -0.769  0.00  0.00     0.310 C 
ATOM     30  C5  <0> d   1      -3.911  10.490  -0.357  0.00  0.00     0.302 C 
ATOM     31  C4  <0> d   1      -2.543  10.075   0.191  0.00  0.00     0.303 C 
ENDBRANCH  24  25
ENDBRANCH   1  24
BRANCH   2  32
ATOM     32  O5  <0> d   1      -2.128   8.499   4.379  0.00  0.00    -0.360 OA
ATOM     33  H21 <0> d   1      -2.512   7.960   5.258  0.00  0.00     0.217 HD
ENDBRANCH   2  32
TORSDOF 4
