REMARK  5 active torsions:
REMARK  status: ('A' for Active; 'I' for Inactive)
REMARK    1  A    between atoms: C3_3  and  O4_29 
REMARK    2  A    between atoms: C4_4  and  C18_21 
REMARK    3  A    between atoms: C9_10  and  C10_11 
REMARK    4  A    between atoms: C13_14  and  O2_17 
REMARK    5  A    between atoms: C18_21  and  N1_22 
ROOT
ATOM      1  C1  <0> d   1       2.595   0.761   0.060  0.00  0.00     0.054 C 
ATOM      2  C2  <0> d   1       1.831  -0.512   0.313  0.00  0.00     0.007 A 
ATOM      3  C3  <0> d   1       1.597  -1.399  -0.727  0.00  0.00     0.082 A 
ATOM      4  C4  <0> d   1       0.892  -2.578  -0.507  0.00  0.00     0.005 A 
ATOM      5  C5  <0> d   1       0.421  -2.874   0.742  0.00  0.00     0.030 A 
ATOM      6  C6  <0> d   1       0.649  -1.992   1.798  0.00  0.00     0.052 A 
ATOM      7  C7  <0> d   1       1.365  -0.801   1.589  0.00  0.00     0.099 A 
ATOM      8  O1  <0> d   1       1.462  -0.119   2.751  0.00  0.00    -0.305 OA
ATOM      9  C8  <0> d   1       0.857  -0.772   3.771  0.00  0.00     0.127 A 
ATOM     10  C9  <0> d   1       0.779  -0.352   5.059  0.00  0.00     0.053 C 
ATOM     11  C17 <0> d   1       0.286  -2.013   3.226  0.00  0.00     0.218 A 
ATOM     12  O3  <0> d   1      -0.337  -2.873   3.825  0.00  0.00    -0.284 OA
ENDROOT
BRANCH  10  13
ATOM     13  C10 <0> d   1       1.268   0.983   5.426  0.00  0.00    -0.033 A 
ATOM     14  C15 <0> d   1       1.700   1.871   4.433  0.00  0.00     0.014 A 
ATOM     15  C14 <0> d   1       2.152   3.123   4.783  0.00  0.00     0.037 A 
ATOM     16  C13 <0> d   1       2.192   3.502   6.120  0.00  0.00     0.068 A 
ATOM     17  C12 <0> d   1       1.770   2.623   7.110  0.00  0.00     0.037 A 
ATOM     18  C11 <0> d   1       1.310   1.370   6.772  0.00  0.00     0.014 A 
BRANCH  16  19
ATOM     19  O2  <0> d   1       2.644   4.736   6.459  0.00  0.00    -0.356 OA
ATOM     20  C16 <0> d   1       3.062   5.590   5.393  0.00  0.00     0.210 C 
ENDBRANCH  16  19
ENDBRANCH  10  13
BRANCH   3  21
ATOM     21  O4  <0> d   1       2.060  -1.113  -1.970  0.00  0.00    -0.359 OA
ATOM     22  H26 <0> d   1       2.977  -1.383  -2.120  0.00  0.00     0.217 HD
ENDBRANCH   3  21
BRANCH   4  23
ATOM     23  C18 <0> d   1       0.646  -3.531  -1.648  0.00  0.00     0.314 C 
BRANCH  23  24
ATOM     24  N1  <0> d   1      -0.519  -3.079  -2.421  0.00  0.00     0.096 N 
ATOM     25  C22 <0> d   1      -0.544  -3.706  -3.750  0.00  0.00     0.303 C 
ATOM     26  C21 <0> d   1      -1.724  -3.151  -4.550  0.00  0.00     0.302 C 
ATOM     27  N2  <0> d   1      -2.974  -3.415  -3.822  0.00  0.00     0.087 N 
ATOM     28  C20 <0> d   1      -2.948  -2.788  -2.494  0.00  0.00     0.302 C 
ATOM     29  C23 <0> d   1      -4.139  -2.963  -4.595  0.00  0.00     0.310 C 
ATOM     30  C19 <0> d   1      -1.768  -3.343  -1.693  0.00  0.00     0.303 C 
ENDBRANCH  23  24
ENDBRANCH   4  23
TORSDOF 5
