REMARK  4 active torsions:
REMARK  status: ('A' for Active; 'I' for Inactive)
REMARK    1  A    between atoms: C4_4  and  O4_30 
REMARK    2  A    between atoms: C5_5  and  C19_22 
REMARK    3  A    between atoms: C10_11  and  C11_12 
REMARK    4  A    between atoms: C19_22  and  N1_23 
ROOT
ATOM      1  C1  <0> d   1       3.254   7.736   2.154  0.00  0.00     0.049 C 
ATOM      2  C2  <0> d   1       3.318   6.248   1.918  0.00  0.00    -0.042 A 
ATOM      3  C3  <0> d   1       3.325   5.757   0.643  0.00  0.00     0.045 A 
ATOM      4  C4  <0> d   1       3.390   4.384   0.423  0.00  0.00     0.077 A 
ATOM      5  C5  <0> d   1       3.437   3.501   1.490  0.00  0.00     0.038 A 
ATOM      6  C6  <0> d   1       3.430   3.984   2.792  0.00  0.00     0.102 A 
ATOM      7  C7  <0> d   1       3.370   5.371   3.002  0.00  0.00     0.057 A 
ATOM      8  C8  <0> d   1       3.378   5.571   4.462  0.00  0.00     0.219 A 
ATOM      9  O1  <0> d   1       3.338   6.627   5.071  0.00  0.00    -0.284 OA
ATOM     10  C9  <0> d   1       3.445   4.214   5.020  0.00  0.00     0.129 A 
ATOM     11  C10 <0> d   1       3.476   3.889   6.342  0.00  0.00     0.078 C 
ATOM     12  O3  <0> d   1       3.473   3.346   3.982  0.00  0.00    -0.305 OA
ENDROOT
BRANCH  11  13
ATOM     13  C11 <0> d   1       3.542   2.531   6.736  0.00  0.00     0.079 A 
ATOM     14  O2  <0> d   1       3.580   1.475   5.894  0.00  0.00    -0.310 OA
ATOM     15  C18 <0> d   1       3.641   0.328   6.600  0.00  0.00     0.086 A 
ATOM     16  C13 <0> d   1       3.642   0.669   7.966  0.00  0.00     0.000 A 
ATOM     17  C17 <0> d   1       3.698  -1.011   6.234  0.00  0.00     0.038 A 
ATOM     18  C12 <0> d   1       3.583   2.084   8.023  0.00  0.00     0.051 A 
ATOM     19  C14 <0> d   1       3.700  -0.338   8.936  0.00  0.00     0.014 A 
ATOM     20  C15 <0> d   1       3.755  -1.647   8.552  0.00  0.00     0.001 A 
ATOM     21  C16 <0> d   1       3.754  -1.987   7.206  0.00  0.00     0.003 A 
ENDBRANCH  11  13
BRANCH   5  22
ATOM     22  C19 <0> d   1       3.501   2.017   1.237  0.00  0.00     0.317 C 
BRANCH  22  23
ATOM     23  N1  <0> d   1       2.138   1.472   1.171  0.00  0.00     0.096 N 
ATOM     24  C23 <0> d   1       2.158   0.003   1.162  0.00  0.00     0.300 C 
ATOM     25  C22 <0> d   1       0.721  -0.525   1.173  0.00  0.00     0.264 C 
ATOM     26  N2  <0> d   1       0.002  -0.004   0.002  0.00  0.00    -0.072 N 
ATOM     27  C21 <0> d   1      -0.018   1.465   0.010  0.00  0.00     0.264 C 
ATOM     28  C24 <0> d   1      -1.361  -0.549  -0.064  0.00  0.00     0.269 C 
ATOM     29  H25 <0> d   1       0.540  -0.332  -0.900  0.00  0.00     0.279 HD
ATOM     30  C20 <0> d   1       1.419   1.992  -0.001  0.00  0.00     0.300 C 
ENDBRANCH  22  23
ENDBRANCH   5  22
BRANCH   4  31
ATOM     31  O4  <0> d   1       3.403   3.906  -0.847  0.00  0.00    -0.360 OA
ATOM     32  H24 <0> d   1       3.454   2.822  -1.027  0.00  0.00     0.217 HD
ENDBRANCH   4  31
TORSDOF 4
