REMARK  2 active torsions:
REMARK  status: ('A' for Active; 'I' for Inactive)
REMARK    1  A    between atoms: C9_10  and  C10_11 
REMARK    2  A    between atoms: C15_16  and  O2_17 
ROOT
ATOM      1  C1  <0> d   1      -3.251  -7.196   0.180  0.00  0.00     0.054 C 
ATOM      2  C2  <0> d   1      -1.755  -7.368   0.234  0.00  0.00     0.009 A 
ATOM      3  C3  <0> d   1      -1.207  -8.637   0.335  0.00  0.00     0.116 A 
ATOM      4  C4  <0> d   1       0.173  -8.809   0.386  0.00  0.00     0.041 A 
ATOM      5  C5  <0> d   1       1.003  -7.725   0.336  0.00  0.00     0.021 A 
ATOM      6  C6  <0> d   1       0.465  -6.442   0.234  0.00  0.00     0.051 A 
ATOM      7  C7  <0> d   1      -0.926  -6.255   0.181  0.00  0.00     0.099 A 
ATOM      8  O1  <0> d   1      -1.205  -4.937   0.084  0.00  0.00    -0.305 OA
ATOM      9  C8  <0> d   1      -0.079  -4.184   0.065  0.00  0.00     0.128 A 
ATOM     10  C9  <0> d   1      -0.021  -2.831  -0.025  0.00  0.00     0.055 C 
ATOM     11  C17 <0> d   1       1.068  -5.099   0.153  0.00  0.00     0.218 A 
ATOM     12  O3  <0> d   1       2.252  -4.811   0.160  0.00  0.00    -0.284 OA
ATOM     13  O4  <0> d   1      -2.023  -9.720   0.386  0.00  0.00    -0.192 OA
ENDROOT
BRANCH  10  14
ATOM     14  C10 <0> d   1      -1.253  -2.037   0.047  0.00  0.00    -0.000 A 
ATOM     15  C15 <0> d   1      -1.192  -0.659   0.316  0.00  0.00     0.078 A 
ATOM     16  C14 <0> d   1      -2.362   0.080   0.376  0.00  0.00     0.037 A 
ATOM     17  C13 <0> d   1      -3.583  -0.536   0.178  0.00  0.00     0.003 A 
ATOM     18  C12 <0> d   1      -3.649  -1.895  -0.083  0.00  0.00     0.001 A 
ATOM     19  C11 <0> d   1      -2.498  -2.648  -0.146  0.00  0.00     0.014 A 
BRANCH  15  20
ATOM     20  O2  <0> d   1       0.007  -0.055   0.511  0.00  0.00    -0.355 OA
ATOM     21  C16 <0> d   1      -0.009   1.349   0.774  0.00  0.00     0.210 C 
ENDBRANCH  15  20
ENDBRANCH  10  14
TORSDOF 2
