REMARK  4 active torsions:
REMARK  status: ('A' for Active; 'I' for Inactive)
REMARK    1  A    between atoms: N2_5  and  C6_8 
REMARK    2  A    between atoms: C6_8  and  C7_9 
REMARK    3  A    between atoms: C8_10  and  O3_28 
REMARK    4  A    between atoms: C14_17  and  C15_18 
ROOT
ATOM      1  C7  <0> d   1      -0.063  -4.571   2.333  0.00  0.00     0.038 A 
ATOM      2  C8  <0> d   1       1.294  -4.779   2.525  0.00  0.00     0.076 A 
ATOM      3  C9  <0> d   1       1.774  -5.243   3.746  0.00  0.00     0.038 A 
ATOM      4  C10 <0> d   1       0.908  -5.498   4.771  0.00  0.00     0.021 A 
ATOM      5  C11 <0> d   1      -0.461  -5.293   4.593  0.00  0.00     0.051 A 
ATOM      6  C12 <0> d   1      -0.956  -4.820   3.367  0.00  0.00     0.101 A 
ATOM      7  O1  <0> d   1      -2.299  -4.695   3.437  0.00  0.00    -0.305 OA
ATOM      8  C13 <0> d   1      -2.776  -5.052   4.653  0.00  0.00     0.128 A 
ATOM      9  C14 <0> d   1      -4.077  -5.039   5.039  0.00  0.00     0.057 C 
ATOM     10  C21 <0> d   1      -1.629  -5.467   5.474  0.00  0.00     0.218 A 
ATOM     11  O2  <0> d   1      -1.642  -5.858   6.629  0.00  0.00    -0.284 OA
ENDROOT
BRANCH   9  12
ATOM     12  C15 <0> d   1      -5.118  -4.608   4.098  0.00  0.00     0.027 A 
ATOM     13  C20 <0> d   1      -6.257  -5.399   3.896  0.00  0.00     0.047 A 
ATOM     14  C19 <0> d   1      -7.233  -4.983   3.014  0.00  0.00     0.025 A 
ATOM     15 Cl1  <0> d   1      -6.442  -6.894   4.758  0.00  0.00    -0.083 Cl
ATOM     16  C18 <0> d   1      -7.085  -3.794   2.321  0.00  0.00     0.005 A 
ATOM     17  C17 <0> d   1      -5.962  -3.008   2.509  0.00  0.00     0.043 A 
ATOM     18  C16 <0> d   1      -4.976  -3.405   3.392  0.00  0.00     0.128 A 
ATOM     19  F1  <0> d   1      -3.881  -2.636   3.575  0.00  0.00    -0.205 F 
ENDBRANCH   9  12
BRANCH   1  20
ATOM     20  C6  <0> d   1      -0.568  -4.068   1.006  0.00  0.00     0.317 C 
BRANCH  20  21
ATOM     21  N2  <0> d   1      -0.588  -2.599   1.014  0.00  0.00     0.096 N 
ATOM     22  C3  <0> d   1      -1.292  -2.075  -0.165  0.00  0.00     0.303 C 
ATOM     23  C2  <0> d   1      -1.360  -0.549  -0.079  0.00  0.00     0.302 C 
ATOM     24  N1  <0> d   1       0.002  -0.004   0.002  0.00  0.00     0.087 N 
ATOM     25  C1  <0> d   1      -0.018   1.465   0.010  0.00  0.00     0.310 C 
ATOM     26  C5  <0> d   1       0.706  -0.528   1.181  0.00  0.00     0.302 C 
ATOM     27  C4  <0> d   1       0.774  -2.054   1.095  0.00  0.00     0.303 C 
ENDBRANCH  20  21
ENDBRANCH   1  20
BRANCH   2  28
ATOM     28  O3  <0> d   1       2.162  -4.528   1.512  0.00  0.00    -0.360 OA
ATOM     29  H20 <0> d   1       2.502  -3.623   1.500  0.00  0.00     0.217 HD
ENDBRANCH   2  28
TORSDOF 4
