REMARK  6 active torsions:
REMARK  status: ('A' for Active; 'I' for Inactive)
REMARK    1  A    between atoms: C2_2  and  N1_3 
REMARK    2  A    between atoms: N2_6  and  C7_9 
REMARK    3  A    between atoms: C7_9  and  C8_10 
REMARK    4  A    between atoms: C9_11  and  O4_29 
REMARK    5  A    between atoms: C15_19  and  C17_21 
REMARK    6  A    between atoms: C20_24  and  O3_27 
ROOT
ATOM      1  C8  <0> d   1      -4.931  -4.100  -0.816  0.00  0.00     0.035 A 
ATOM      2  C9  <0> d   1      -4.954  -4.863  -1.973  0.00  0.00     0.076 A 
ATOM      3  C10 <0> d   1      -4.958  -6.254  -1.901  0.00  0.00     0.038 A 
ATOM      4  C11 <0> d   1      -4.953  -6.886  -0.692  0.00  0.00     0.017 A 
ATOM      5  C12 <0> d   1      -4.955  -6.131   0.490  0.00  0.00    -0.000 A 
ATOM      6  C13 <0> d   1      -4.913  -4.725   0.421  0.00  0.00     0.100 A 
ATOM      7  O1  <0> d   1      -4.840  -3.993   1.559  0.00  0.00    -0.273 OA
ATOM      8  C14 <0> d   1      -5.358  -4.554   2.677  0.00  0.00     0.299 C 
ATOM      9  O2  <0> d   1      -5.966  -3.886   3.492  0.00  0.00    -0.259 OA
ATOM     10  C15 <0> d   1      -5.160  -6.000   2.874  0.00  0.00     0.051 C 
ATOM     11  C16 <0> d   1      -4.983  -6.773   1.756  0.00  0.00     0.032 C 
ENDROOT
BRANCH   1  12
ATOM     12  C7  <0> d   1      -4.919  -2.596  -0.902  0.00  0.00     0.279 C 
BRANCH  12  13
ATOM     13  N2  <0> d   1      -3.530  -2.119  -0.956  0.00  0.00    -0.064 N 
ATOM     14  C4  <0> d   1      -3.519  -0.665  -1.160  0.00  0.00     0.265 C 
ATOM     15  C3  <0> d   1      -2.073  -0.171  -1.236  0.00  0.00     0.300 C 
ATOM     16  N1  <0> d   1      -1.376  -0.512   0.012  0.00  0.00     0.091 N 
ATOM     17  C6  <0> d   1      -1.400  -1.964   0.243  0.00  0.00     0.300 C 
ATOM     18  C5  <0> d   1      -2.852  -2.443   0.306  0.00  0.00     0.265 C 
ATOM     19  H27 <0> d   1      -3.050  -2.570  -1.721  0.00  0.00     0.280 HD
BRANCH  16  20
ATOM     20  C2  <0> d   1       0.002  -0.004   0.002  0.00  0.00     0.268 C 
ATOM     21  C1  <0> d   1      -0.019   1.526   0.010  0.00  0.00     0.037 C 
ENDBRANCH  16  20
ENDBRANCH  12  13
ENDBRANCH   1  12
BRANCH   2  22
ATOM     22  O4  <0> d   1      -4.972  -4.250  -3.184  0.00  0.00    -0.360 OA
ATOM     23  H26 <0> d   1      -4.094  -4.076  -3.550  0.00  0.00     0.217 HD
ENDBRANCH   2  22
BRANCH  10  24
ATOM     24  C17 <0> d   1      -5.163  -6.597   4.230  0.00  0.00    -0.020 A 
ATOM     25  C22 <0> d   1      -4.165  -6.261   5.144  0.00  0.00     0.015 A 
ATOM     26  C21 <0> d   1      -4.175  -6.814   6.407  0.00  0.00     0.037 A 
ATOM     27  C20 <0> d   1      -5.169  -7.714   6.765  0.00  0.00     0.068 A 
ATOM     28  C19 <0> d   1      -6.160  -8.056   5.855  0.00  0.00     0.037 A 
ATOM     29  C18 <0> d   1      -6.160  -7.502   4.593  0.00  0.00     0.015 A 
BRANCH  27  30
ATOM     30  O3  <0> d   1      -5.172  -8.262   8.009  0.00  0.00    -0.356 OA
ATOM     31  C23 <0> d   1      -4.123  -7.866   8.895  0.00  0.00     0.210 C 
ENDBRANCH  27  30
ENDBRANCH  10  24
TORSDOF 6
