REMARK  5 active torsions:
REMARK  status: ('A' for Active; 'I' for Inactive)
REMARK    1  A    between atoms: C3_4  and  C11_13 
REMARK    2  A    between atoms: C8_9  and  O1_11 
REMARK    3  A    between atoms: C17_20  and  O4_32 
REMARK    4  A    between atoms: C18_21  and  C20_24 
REMARK    5  A    between atoms: C20_24  and  N2_25 
ROOT
ATOM      1  C11 <0> d   1       4.937  -0.688  -0.050  0.00  0.00     0.055 C 
ATOM      2  C12 <0> d   1       5.821  -1.725  -0.064  0.00  0.00     0.128 A 
ATOM      3  C13 <0> d   1       7.236  -1.607  -0.077  0.00  0.00     0.218 A 
ATOM      4  O2  <0> d   1       7.895  -0.581  -0.078  0.00  0.00    -0.284 OA
ATOM      5  C14 <0> d   1       7.738  -2.993  -0.089  0.00  0.00     0.051 A 
ATOM      6  C15 <0> d   1       9.016  -3.551  -0.104  0.00  0.00     0.021 A 
ATOM      7  C16 <0> d   1       9.165  -4.910  -0.113  0.00  0.00     0.038 A 
ATOM      8  C17 <0> d   1       8.045  -5.737  -0.107  0.00  0.00     0.076 A 
ATOM      9  C18 <0> d   1       6.770  -5.197  -0.092  0.00  0.00     0.036 A 
ATOM     10  C19 <0> d   1       6.602  -3.818  -0.083  0.00  0.00     0.101 A 
ATOM     11  O3  <0> d   1       5.499  -3.040  -0.062  0.00  0.00    -0.305 OA
ENDROOT
BRANCH   1  12
ATOM     12  C3  <0> d   1       3.500  -0.954  -0.037  0.00  0.00    -0.005 A 
ATOM     13  C2  <0> d   1       2.887  -2.189  -0.038  0.00  0.00     0.103 A 
ATOM     14  N1  <0> d   1       1.542  -2.026  -0.024  0.00  0.00    -0.360 N 
ATOM     15  C1  <0> d   1       0.569  -3.122  -0.021  0.00  0.00     0.156 C 
ATOM     16  C5  <0> d   1       1.216  -0.684  -0.013  0.00  0.00     0.045 A 
ATOM     17  C4  <0> d   1       2.415   0.046  -0.021  0.00  0.00     0.005 A 
ATOM     18  C6  <0> d   1       0.002  -0.004   0.002  0.00  0.00     0.033 A 
ATOM     19  C9  <0> d   1       2.387   1.438  -0.013  0.00  0.00     0.051 A 
ATOM     20  C8  <0> d   1       1.171   2.097   0.002  0.00  0.00     0.069 A 
ATOM     21  C7  <0> d   1      -0.017   1.373   0.010  0.00  0.00     0.039 A 
BRANCH  20  22
ATOM     22  O1  <0> d   1       1.137   3.457   0.009  0.00  0.00    -0.356 OA
ATOM     23  C10 <0> d   1      -0.152   4.073   0.025  0.00  0.00     0.210 C 
ENDBRANCH  20  22
ENDBRANCH   1  12
BRANCH   9  24
ATOM     24  C20 <0> d   1       5.566  -6.103  -0.085  0.00  0.00     0.279 C 
BRANCH  24  25
ATOM     25  N2  <0> d   1       5.162  -6.390  -1.468  0.00  0.00    -0.067 N 
ATOM     26  C26 <0> d   1       4.139  -7.460  -1.511  0.00  0.00     0.235 C 
ATOM     27  C25 <0> d   1       2.742  -6.940  -1.309  0.00  0.00     0.028 C 
ATOM     28  C24 <0> d   1       2.115  -6.670  -2.693  0.00  0.00     0.002 C 
ATOM     29  C23 <0> d   1       2.583  -5.417  -3.274  0.00  0.00     0.002 C 
ATOM     30  C22 <0> d   1       4.110  -5.412  -3.498  0.00  0.00     0.028 C 
ATOM     31  C21 <0> d   1       4.785  -5.148  -2.179  0.00  0.00     0.235 C 
ATOM     32  H28 <0> d   1       6.028  -6.790  -2.016  0.00  0.00     0.280 HD
ENDBRANCH  24  25
ENDBRANCH   9  24
BRANCH   8  33
ATOM     33  O4  <0> d   1       8.204  -7.085  -0.116  0.00  0.00    -0.360 OA
ATOM     34  H29 <0> d   1       7.323  -7.744  -0.111  0.00  0.00     0.217 HD
ENDBRANCH   8  33
TORSDOF 5
