REMARK  6 active torsions:
REMARK  status: ('A' for Active; 'I' for Inactive)
REMARK    1  A    between atoms: C3_3  and  O4_22 
REMARK    2  A    between atoms: C8_9  and  O3_21 
REMARK    3  A    between atoms: C9_10  and  C11_13 
REMARK    4  A    between atoms: C11_13  and  N1_14 
REMARK    5  A    between atoms: O4_22  and  C17_23 
REMARK    6  A    between atoms: C20_26  and  O5_29 
ROOT
ATOM      1  C1  <0> d   1      -1.187   3.320  -2.429  0.00  0.00     0.080 C 
ATOM      2  C2  <0> d   1      -1.165   4.092  -1.135  0.00  0.00     0.087 A 
ATOM      3  C3  <0> d   1      -1.174   3.408   0.026  0.00  0.00     0.156 A 
ATOM      4  C4  <0> d   1      -1.159   4.118   1.260  0.00  0.00     0.221 A 
ATOM      5  O1  <0> d   1      -1.171   3.532   2.330  0.00  0.00    -0.284 OA
ATOM      6  C5  <0> d   1      -1.123   5.589   1.191  0.00  0.00     0.052 A 
ATOM      7  C6  <0> d   1      -1.102   6.371   2.347  0.00  0.00     0.021 A 
ATOM      8  C7  <0> d   1      -1.074   7.732   2.242  0.00  0.00     0.038 A 
ATOM      9  C8  <0> d   1      -1.067   8.343   0.990  0.00  0.00     0.076 A 
ATOM     10  C9  <0> d   1      -1.088   7.581  -0.166  0.00  0.00     0.035 A 
ATOM     11  C10 <0> d   1      -1.116   6.196  -0.077  0.00  0.00     0.100 A 
ATOM     12  O2  <0> d   1      -1.137   5.431  -1.187  0.00  0.00    -0.311 OA
ENDROOT
BRANCH   3  13
ATOM     13  O4  <0> d   1      -1.203   2.047   0.019  0.00  0.00    -0.304 OA
BRANCH  13  14
ATOM     14  C17 <0> d   1      -0.017   1.383   0.010  0.00  0.00     0.076 A 
ATOM     15  C22 <0> d   1       0.002  -0.004   0.002  0.00  0.00     0.040 A 
ATOM     16  C21 <0> d   1       1.208  -0.678  -0.013  0.00  0.00     0.039 A 
ATOM     17  C20 <0> d   1       2.399   0.032  -0.021  0.00  0.00     0.068 A 
ATOM     18  C19 <0> d   1       2.381   1.419  -0.013  0.00  0.00     0.039 A 
ATOM     19  C18 <0> d   1       1.175   2.093   0.002  0.00  0.00     0.040 A 
BRANCH  17  20
ATOM     20  O5  <0> d   1       3.586  -0.632  -0.035  0.00  0.00    -0.356 OA
ATOM     21  C23 <0> d   1       4.774   0.162  -0.042  0.00  0.00     0.210 C 
ENDBRANCH  17  20
ENDBRANCH  13  14
ENDBRANCH   3  13
BRANCH  10  22
ATOM     22  C11 <0> d   1      -1.080   8.253  -1.515  0.00  0.00     0.279 C 
BRANCH  22  23
ATOM     23  N1  <0> d   1      -2.463   8.500  -1.946  0.00  0.00    -0.064 N 
ATOM     24  C15 <0> d   1      -2.497   9.360  -3.138  0.00  0.00     0.265 C 
ATOM     25  C14 <0> d   1      -3.952   9.658  -3.507  0.00  0.00     0.299 C 
ATOM     26  N2  <0> d   1      -4.661   8.394  -3.753  0.00  0.00     0.087 N 
ATOM     27  C13 <0> d   1      -4.626   7.534  -2.562  0.00  0.00     0.299 C 
ATOM     28  C16 <0> d   1      -6.043   8.640  -4.184  0.00  0.00     0.310 C 
ATOM     29  C12 <0> d   1      -3.171   7.236  -2.192  0.00  0.00     0.265 C 
ATOM     30  H27 <0> d   1      -2.981   9.027  -1.132  0.00  0.00     0.280 HD
ENDBRANCH  22  23
ENDBRANCH  10  22
BRANCH   9  31
ATOM     31  O3  <0> d   1      -1.039   9.698   0.902  0.00  0.00    -0.360 OA
ATOM     32  H19 <0> d   1      -1.033  10.185  -0.084  0.00  0.00     0.217 HD
ENDBRANCH   9  31
TORSDOF 6
