REMARK  5 active torsions:
REMARK  status: ('A' for Active; 'I' for Inactive)
REMARK    1  A    between atoms: N1_7  and  C7_8 
REMARK    2  A    between atoms: C7_8  and  C8_9 
REMARK    3  A    between atoms: C15_17  and  O3_20 
REMARK    4  A    between atoms: O3_20  and  C17_21 
REMARK    5  A    between atoms: C22_26  and  O4_27 
ROOT
ATOM      1  C8  <0> d   1       4.420  -0.202  -1.746  0.00  0.00     0.039 A 
ATOM      2  C9  <0> d   1       5.170  -1.161  -1.086  0.00  0.00     0.118 A 
ATOM      3  C10 <0> d   1       6.527  -0.957  -0.846  0.00  0.00     0.041 A 
ATOM      4  C11 <0> d   1       7.137   0.193  -1.259  0.00  0.00     0.021 A 
ATOM      5  C12 <0> d   1       6.395   1.169  -1.925  0.00  0.00     0.051 A 
ATOM      6  C13 <0> d   1       5.026   0.970  -2.177  0.00  0.00     0.100 A 
ATOM      7  O1  <0> d   1       4.317   1.922  -2.816  0.00  0.00    -0.318 OA
ATOM      8  C14 <0> d   1       4.870   3.066  -3.240  0.00  0.00     0.184 A 
ATOM      9  C15 <0> d   1       6.174   3.357  -3.056  0.00  0.00     0.149 A 
ATOM     10  C16 <0> d   1       7.014   2.423  -2.386  0.00  0.00     0.220 A 
ATOM     11  O2  <0> d   1       8.198   2.652  -2.202  0.00  0.00    -0.284 OA
ATOM     12  O5  <0> d   1       4.578  -2.309  -0.669  0.00  0.00    -0.191 OA
ENDROOT
BRANCH   1  13
ATOM     13  C7  <0> d   1       2.952  -0.433  -2.000  0.00  0.00     0.279 C 
BRANCH  13  14
ATOM     14  N1  <0> d   1       2.172   0.089  -0.870  0.00  0.00    -0.063 N 
ATOM     15  C2  <0> d   1       0.792  -0.413  -0.907  0.00  0.00     0.184 C 
ATOM     16  C1  <0> d   1       0.807  -1.941  -0.980  0.00  0.00     0.040 C 
ATOM     17  C3  <0> d   1       0.052   0.031   0.357  0.00  0.00     0.033 C 
ATOM     18  C4  <0> d   1       0.057   1.560   0.435  0.00  0.00     0.004 C 
ATOM     19  C5  <0> d   1       1.505   2.059   0.423  0.00  0.00     0.028 C 
ATOM     20  C6  <0> d   1       2.203   1.557  -0.843  0.00  0.00     0.235 C 
ATOM     21  H25 <0> d   1       2.635  -0.274   0.059  0.00  0.00     0.280 HD
ENDBRANCH  13  14
ENDBRANCH   1  13
BRANCH   9  22
ATOM     22  O3  <0> d   1       6.682   4.536  -3.507  0.00  0.00    -0.302 OA
BRANCH  22  23
ATOM     23  C17 <0> d   1       7.263   4.552  -4.737  0.00  0.00     0.109 A 
ATOM     24  C22 <0> d   1       7.708   5.753  -5.282  0.00  0.00     0.102 A 
ATOM     25  C21 <0> d   1       8.299   5.764  -6.535  0.00  0.00     0.039 A 
ATOM     26  C20 <0> d   1       8.446   4.584  -7.241  0.00  0.00     0.003 A 
ATOM     27  C19 <0> d   1       8.004   3.391  -6.699  0.00  0.00     0.003 A 
ATOM     28  C18 <0> d   1       7.418   3.372  -5.447  0.00  0.00     0.040 A 
BRANCH  24  29
ATOM     29  O4  <0> d   1       7.563   6.913  -4.587  0.00  0.00    -0.353 OA
ATOM     30  C23 <0> d   1       8.043   8.106  -5.209  0.00  0.00     0.210 C 
ENDBRANCH  24  29
ENDBRANCH  22  23
ENDBRANCH   9  22
TORSDOF 5
