REMARK  5 active torsions:
REMARK  status: ('A' for Active; 'I' for Inactive)
REMARK    1  A    between atoms: C2_2  and  N1_3 
REMARK    2  A    between atoms: N2_6  and  C7_9 
REMARK    3  A    between atoms: C7_9  and  C8_10 
REMARK    4  A    between atoms: C9_11  and  O5_32 
REMARK    5  A    between atoms: C15_18  and  C16_19 
ROOT
ATOM      1  C8  <0> d   1       2.755  -4.119  -3.034  0.00  0.00     0.038 A 
ATOM      2  C9  <0> d   1       3.702  -4.830  -2.315  0.00  0.00     0.076 A 
ATOM      3  C10 <0> d   1       3.786  -6.215  -2.431  0.00  0.00     0.038 A 
ATOM      4  C11 <0> d   1       2.932  -6.887  -3.258  0.00  0.00     0.021 A 
ATOM      5  C12 <0> d   1       1.974  -6.184  -3.988  0.00  0.00     0.051 A 
ATOM      6  C13 <0> d   1       1.876  -4.788  -3.876  0.00  0.00     0.101 A 
ATOM      7  O1  <0> d   1       0.878  -4.336  -4.667  0.00  0.00    -0.305 OA
ATOM      8  C14 <0> d   1       0.264  -5.345  -5.328  0.00  0.00     0.128 A 
ATOM      9  C15 <0> d   1      -0.772  -5.221  -6.197  0.00  0.00     0.055 C 
ATOM     10  C24 <0> d   1       0.930  -6.598  -4.944  0.00  0.00     0.218 A 
ATOM     11  O4  <0> d   1       0.670  -7.727  -5.322  0.00  0.00    -0.284 OA
ENDROOT
BRANCH   9  12
ATOM     12  C16 <0> d   1      -1.400  -3.912  -6.408  0.00  0.00     0.002 A 
ATOM     13  C21 <0> d   1      -2.668  -3.825  -7.009  0.00  0.00     0.090 A 
ATOM     14  C20 <0> d   1      -3.257  -2.585  -7.192  0.00  0.00     0.002 A 
ATOM     15  O2  <0> d   1      -3.304  -4.958  -7.402  0.00  0.00    -0.325 OA
ATOM     16  C19 <0> d   1      -2.591  -1.438  -6.802  0.00  0.00     0.036 A 
ATOM     17  C23 <0> d   1      -4.623  -2.475  -7.822  0.00  0.00     0.212 C 
ATOM     18  C18 <0> d   1      -1.336  -1.517  -6.218  0.00  0.00     0.035 A 
ATOM     19  C17 <0> d   1      -0.738  -2.742  -6.018  0.00  0.00     0.038 A 
ATOM     20 Cl1  <0> d   1      -0.514  -0.065  -5.736  0.00  0.00    -0.084 Cl
ATOM     21  O3  <0> d   1      -4.934  -3.707  -8.489  0.00  0.00    -0.362 OA
ATOM     22  C22 <0> d   1      -4.706  -4.855  -7.664  0.00  0.00     0.345 C 
ENDBRANCH   9  12
BRANCH   1  23
ATOM     23  C7  <0> d   1       2.676  -2.620  -2.899  0.00  0.00     0.317 C 
BRANCH  23  24
ATOM     24  N2  <0> d   1       1.755  -2.275  -1.807  0.00  0.00     0.096 N 
ATOM     25  C4  <0> d   1       1.830  -0.843  -1.487  0.00  0.00     0.303 C 
ATOM     26  C3  <0> d   1       0.918  -0.540  -0.296  0.00  0.00     0.302 C 
ATOM     27  N1  <0> d   1      -0.459  -0.932  -0.625  0.00  0.00     0.091 N 
ATOM     28  C6  <0> d   1      -0.534  -2.364  -0.945  0.00  0.00     0.302 C 
ATOM     29  C5  <0> d   1       0.378  -2.667  -2.136  0.00  0.00     0.303 C 
BRANCH  27  30
ATOM     30  C2  <0> d   1      -1.380  -0.587   0.466  0.00  0.00     0.268 C 
ATOM     31  C1  <0> d   1      -1.461   0.935   0.604  0.00  0.00     0.037 C 
ENDBRANCH  27  30
ENDBRANCH  23  24
ENDBRANCH   1  23
BRANCH   2  32
ATOM     32  O5  <0> d   1       4.555  -4.171  -1.490  0.00  0.00    -0.360 OA
ATOM     33  H25 <0> d   1       4.229  -4.070  -0.585  0.00  0.00     0.217 HD
ENDBRANCH   2  32
TORSDOF 5
