REMARK  5 active torsions:
REMARK  status: ('A' for Active; 'I' for Inactive)
REMARK    1  A    between atoms: C7_8  and  C10_13 
REMARK    2  A    between atoms: C10_13  and  N1_14 
REMARK    3  A    between atoms: N2_17  and  C15_20 
REMARK    4  A    between atoms: C15_20  and  C16_21 
REMARK    5  A    between atoms: C16_21  and  O3_22 
ROOT
ATOM      1  C1  <0> d   1      -5.236   0.403  -2.088  0.00  0.00     0.026 A 
ATOM      2  C2  <0> d   1      -4.287  -0.401  -1.492  0.00  0.00     0.040 A 
ATOM      3  C3  <0> d   1      -3.194   0.172  -0.855  0.00  0.00     0.090 A 
ATOM      4  C4  <0> d   1      -3.066   1.571  -0.825  0.00  0.00     0.008 A 
ATOM      5  C5  <0> d   1      -4.034   2.374  -1.434  0.00  0.00     0.038 A 
ATOM      6  C6  <0> d   1      -5.111   1.786  -2.061  0.00  0.00     0.035 A 
ATOM      7 Cl1  <0> d   1      -6.317   2.777  -2.819  0.00  0.00    -0.084 Cl
ATOM      8  C7  <0> d   1      -1.904   2.165  -0.155  0.00  0.00    -0.011 A 
ATOM      9  C8  <0> d   1      -1.001   1.332   0.421  0.00  0.00     0.092 A 
ATOM     10  C9  <0> d   1      -1.193  -0.066   0.352  0.00  0.00     0.288 A 
ATOM     11  O1  <0> d   1      -0.373  -0.803   0.869  0.00  0.00    -0.260 OA
ATOM     12  O2  <0> d   1      -2.256  -0.602  -0.267  0.00  0.00    -0.275 OA
ENDROOT
BRANCH   8  13
ATOM     13  C10 <0> d   1      -1.724   3.660  -0.098  0.00  0.00     0.312 C 
BRANCH  13  14
ATOM     14  N1  <0> d   1      -1.304   4.154  -1.417  0.00  0.00     0.096 N 
ATOM     15  C14 <0> d   1      -1.482   5.609  -1.515  0.00  0.00     0.303 C 
ATOM     16  C13 <0> d   1      -1.110   6.071  -2.926  0.00  0.00     0.302 C 
ATOM     17  N2  <0> d   1       0.281   5.693  -3.212  0.00  0.00     0.093 N 
ATOM     18  C12 <0> d   1       0.459   4.237  -3.113  0.00  0.00     0.302 C 
ATOM     19  C11 <0> d   1       0.086   3.775  -1.702  0.00  0.00     0.303 C 
BRANCH  17  20
ATOM     20  C15 <0> d   1       0.701   6.186  -4.530  0.00  0.00     0.298 C 
BRANCH  20  21
ATOM     21  C16 <0> d   1       0.968   7.690  -4.450  0.00  0.00     0.194 C 
BRANCH  21  22
ATOM     22  O3  <0> d   1       2.071   7.933  -3.575  0.00  0.00    -0.399 OA
ATOM     23  H19 <0> d   1       2.412   8.962  -3.392  0.00  0.00     0.209 HD
ENDBRANCH  21  22
ENDBRANCH  20  21
ENDBRANCH  17  20
ENDBRANCH  13  14
ENDBRANCH   8  13
TORSDOF 5
