REMARK  4 active torsions:
REMARK  status: ('A' for Active; 'I' for Inactive)
REMARK    1  A    between atoms: C3_3  and  C14_18 
REMARK    2  A    between atoms: C9_10  and  C11_13 
REMARK    3  A    between atoms: C11_13  and  N1_14 
REMARK    4  A    between atoms: C17_21  and  O4_24 
ROOT
ATOM      1  C1  <0> d   1      -0.740   3.009  -2.207  0.00  0.00     0.077 C 
ATOM      2  C2  <0> d   1      -1.675   2.895  -1.031  0.00  0.00     0.065 A 
ATOM      3  C3  <0> d   1      -1.310   2.115   0.020  0.00  0.00     0.054 A 
ATOM      4  C4  <0> d   1      -2.222   2.009   1.172  0.00  0.00     0.198 A 
ATOM      5  O1  <0> d   1      -1.946   1.328   2.145  0.00  0.00    -0.286 OA
ATOM      6  C5  <0> d   1      -3.484   2.766   1.092  0.00  0.00     0.050 A 
ATOM      7  C6  <0> d   1      -4.415   2.733   2.131  0.00  0.00     0.021 A 
ATOM      8  C7  <0> d   1      -5.575   3.445   2.024  0.00  0.00     0.041 A 
ATOM      9  C8  <0> d   1      -5.832   4.205   0.884  0.00  0.00     0.118 A 
ATOM     10  C9  <0> d   1      -4.918   4.248  -0.154  0.00  0.00     0.039 A 
ATOM     11  C10 <0> d   1      -3.733   3.529  -0.062  0.00  0.00     0.100 A 
ATOM     12  O2  <0> d   1      -2.833   3.560  -1.064  0.00  0.00    -0.313 OA
ATOM     13  O3  <0> d   1      -6.989   4.909   0.792  0.00  0.00    -0.191 OA
ENDROOT
BRANCH   3  14
ATOM     14  C14 <0> d   1      -0.017   1.390   0.010  0.00  0.00    -0.019 A 
ATOM     15  C19 <0> d   1       0.002  -0.004   0.002  0.00  0.00     0.015 A 
ATOM     16  C18 <0> d   1       1.207  -0.676  -0.013  0.00  0.00     0.037 A 
ATOM     17  C17 <0> d   1       2.399   0.034  -0.021  0.00  0.00     0.068 A 
ATOM     18  C16 <0> d   1       2.384   1.422  -0.014  0.00  0.00     0.037 A 
ATOM     19  C15 <0> d   1       1.182   2.100   0.002  0.00  0.00     0.015 A 
BRANCH  17  20
ATOM     20  O4  <0> d   1       3.584  -0.630  -0.036  0.00  0.00    -0.356 OA
ATOM     21  C20 <0> d   1       4.773   0.163  -0.044  0.00  0.00     0.210 C 
ENDBRANCH  17  20
ENDBRANCH   3  14
BRANCH  10  22
ATOM     22  C11 <0> d   1      -5.208   5.073  -1.382  0.00  0.00     0.278 C 
BRANCH  22  23
ATOM     23  N1  <0> d   1      -5.919   4.249  -2.369  0.00  0.00    -0.075 N 
ATOM     24  C12 <0> d   1      -7.251   3.873  -1.878  0.00  0.00     0.269 C 
ATOM     25  C13 <0> d   1      -6.010   4.938  -3.663  0.00  0.00     0.269 C 
ATOM     26  H21 <0> d   1      -5.340   3.325  -2.518  0.00  0.00     0.279 HD
ENDBRANCH  22  23
ENDBRANCH  10  22
TORSDOF 4
