REMARK  5 active torsions:
REMARK  status: ('A' for Active; 'I' for Inactive)
REMARK    1  A    between atoms: C2_2  and  C4_4 
REMARK    2  A    between atoms: C4_4  and  O1_5 
REMARK    3  A    between atoms: O1_5  and  C5_6 
REMARK    4  A    between atoms: C8_9  and  C11_13 
REMARK    5  A    between atoms: C12_14  and  C14_19 
ROOT
ATOM      1  C5  <0> d   1       0.596  -2.435  -2.648  0.00  0.00     0.071 A 
ATOM      2  C6  <0> d   1       0.379  -2.068  -3.970  0.00  0.00     0.038 A 
ATOM      3  C7  <0> d   1       0.234  -3.034  -4.943  0.00  0.00     0.019 A 
ATOM      4  C8  <0> d   1       0.306  -4.383  -4.601  0.00  0.00     0.032 A 
ATOM      5  C9  <0> d   1       0.524  -4.752  -3.269  0.00  0.00     0.122 A 
ATOM      6  C10 <0> d   1       0.673  -3.775  -2.300  0.00  0.00     0.077 A 
ATOM      7  O2  <0> d   1       0.594  -6.066  -2.929  0.00  0.00    -0.191 OA
ENDROOT
BRANCH   4   8
ATOM      8  C11 <0> d   1       0.150  -5.424  -5.645  0.00  0.00     0.102 A 
ATOM      9  C12 <0> d   1      -0.863  -5.468  -6.636  0.00  0.00     0.022 A 
ATOM     10  C13 <0> d   1      -0.647  -6.580  -7.393  0.00  0.00     0.124 A 
ATOM     11  N1  <0> d   1       0.444  -7.206  -6.906  0.00  0.00    -0.288 N 
ATOM     12  H1  <0> d   1       0.829  -8.027  -7.252  0.00  0.00     0.188 HD
ATOM     13  N2  <0> d   1       0.930  -6.468  -5.820  0.00  0.00    -0.174 NA
BRANCH   9  14
ATOM     14  C14 <0> d   1      -1.958  -4.483  -6.816  0.00  0.00    -0.022 A 
ATOM     15  C19 <0> d   1      -2.134  -3.850  -8.045  0.00  0.00     0.012 A 
ATOM     16  C18 <0> d   1      -3.158  -2.939  -8.209  0.00  0.00     0.001 A 
ATOM     17  C17 <0> d   1      -4.001  -2.645  -7.152  0.00  0.00     0.000 A 
ATOM     18  C16 <0> d   1      -3.827  -3.266  -5.928  0.00  0.00     0.001 A 
ATOM     19  C15 <0> d   1      -2.810  -4.183  -5.755  0.00  0.00     0.012 A 
ENDBRANCH   9  14
ENDBRANCH   4   8
BRANCH   1  20
ATOM     20  O1  <0> d   1       0.737  -1.478  -1.694  0.00  0.00    -0.347 OA
BRANCH  20  21
ATOM     21  C4  <0> d   1       0.646  -0.117  -2.121  0.00  0.00     0.208 C 
BRANCH  21  22
ATOM     22  C2  <0> d   1       0.826   0.795  -0.934  0.00  0.00    -0.069 C 
ATOM     23  C1  <0> d   1       0.773   2.289  -1.118  0.00  0.00     0.044 C 
ATOM     24  C3  <0> d   1       1.029   0.288   0.256  0.00  0.00     0.016 C 
ENDBRANCH  21  22
ENDBRANCH  20  21
ENDBRANCH   1  20
TORSDOF 5
