REMARK  7 active torsions:
REMARK  status: ('A' for Active; 'I' for Inactive)
REMARK    1  A    between atoms: C4_5  and  C5_7 
REMARK    2  A    between atoms: C9_12  and  O4_28 
REMARK    3  A    between atoms: C10_13  and  C14_18 
REMARK    4  A    between atoms: C14_18  and  N2_19 
REMARK    5  A    between atoms: N3_22  and  C19_25 
REMARK    6  A    between atoms: C19_25  and  C20_26 
REMARK    7  A    between atoms: C20_26  and  O3_27 
ROOT
ATOM      1  C5  <0> d   1      -0.550  -0.118   0.826  0.00  0.00     0.073 A 
ATOM      2  C6  <0> d   1       0.606  -0.778   0.541  0.00  0.00     0.161 A 
ATOM      3  O1  <0> d   1       1.747  -0.141   0.271  0.00  0.00    -0.320 OA
ATOM      4  C7  <0> d   1       1.861   1.201   0.256  0.00  0.00     0.097 A 
ATOM      5  C8  <0> d   1       3.079   1.803  -0.033  0.00  0.00     0.007 A 
ATOM      6  C9  <0> d   1       3.179   3.184  -0.044  0.00  0.00     0.082 A 
ATOM      7  C10 <0> d   1       2.068   3.978   0.231  0.00  0.00     0.005 A 
ATOM      8  C11 <0> d   1       0.863   3.403   0.517  0.00  0.00     0.030 A 
ATOM      9  C12 <0> d   1       0.746   2.012   0.532  0.00  0.00     0.050 A 
ATOM     10  C13 <0> d   1      -0.538   1.356   0.837  0.00  0.00     0.199 A 
ATOM     11  O2  <0> d   1      -1.543   2.002   1.080  0.00  0.00    -0.286 OA
ATOM     12  C21 <0> d   1       4.288   0.956  -0.333  0.00  0.00     0.054 C 
ENDROOT
BRANCH   7  13
ATOM     13  C14 <0> d   1       2.196   5.480   0.215  0.00  0.00     0.314 C 
BRANCH  13  14
ATOM     14  N2  <0> d   1       2.812   5.933   1.469  0.00  0.00     0.096 N 
ATOM     15  C18 <0> d   1       3.279   7.321   1.356  0.00  0.00     0.303 C 
ATOM     16  C17 <0> d   1       3.982   7.728   2.653  0.00  0.00     0.302 C 
ATOM     17  N3  <0> d   1       3.051   7.579   3.780  0.00  0.00     0.093 N 
ATOM     18  C16 <0> d   1       2.584   6.190   3.893  0.00  0.00     0.302 C 
ATOM     19  C15 <0> d   1       1.880   5.784   2.596  0.00  0.00     0.303 C 
BRANCH  17  20
ATOM     20  C19 <0> d   1       3.666   8.032   5.034  0.00  0.00     0.298 C 
BRANCH  20  21
ATOM     21  C20 <0> d   1       3.677   9.561   5.074  0.00  0.00     0.194 C 
BRANCH  21  22
ATOM     22  O3  <0> d   1       2.334  10.046   5.128  0.00  0.00    -0.399 OA
ATOM     23  H21 <0> d   1       2.141  11.128   5.162  0.00  0.00     0.209 HD
ENDBRANCH  21  22
ENDBRANCH  20  21
ENDBRANCH  17  20
ENDBRANCH  13  14
ENDBRANCH   7  13
BRANCH   6  24
ATOM     24  O4  <0> d   1       4.371   3.770  -0.326  0.00  0.00    -0.359 OA
ATOM     25  H22 <0> d   1       4.456   4.866  -0.336  0.00  0.00     0.217 HD
ENDBRANCH   6  24
BRANCH   1  26
ATOM     26  C4  <0> d   1      -1.791  -0.864   1.120  0.00  0.00     0.114 A 
ATOM     27  S1  <0> d   1      -3.420  -0.244   1.519  0.00  0.00    -0.079 SA
ATOM     28  C3  <0> d   1      -4.220  -1.833   1.698  0.00  0.00     0.078 A 
ATOM     29  C2  <0> d   1      -3.181  -2.668   1.439  0.00  0.00     0.038 A 
ATOM     30  C1  <0> d   1      -3.385  -4.161   1.475  0.00  0.00     0.071 C 
ATOM     31  N1  <0> d   1      -1.998  -2.173   1.153  0.00  0.00    -0.245 NA
ENDBRANCH   1  26
TORSDOF 7
