REMARK  5 active torsions:
REMARK  status: ('A' for Active; 'I' for Inactive)
REMARK    1  A    between atoms: C2_2  and  C4_4 
REMARK    2  A    between atoms: C4_4  and  O1_5 
REMARK    3  A    between atoms: O1_5  and  C5_6 
REMARK    4  A    between atoms: C8_9  and  C11_13 
REMARK    5  A    between atoms: C12_14  and  C14_19 
ROOT
ATOM      1  C11 <0> d   1       0.150  -5.424  -5.645  0.00  0.00     0.102 A 
ATOM      2  C12 <0> d   1      -0.863  -5.468  -6.636  0.00  0.00     0.022 A 
ATOM      3  C13 <0> d   1      -0.647  -6.581  -7.393  0.00  0.00     0.124 A 
ATOM      4  N1  <0> d   1       0.443  -7.207  -6.905  0.00  0.00    -0.288 N 
ATOM      5  N2  <0> d   1       0.930  -6.469  -5.820  0.00  0.00    -0.174 NA
ATOM      6  H1  <0> d   1       0.827  -8.028  -7.250  0.00  0.00     0.188 HD
ENDROOT
BRANCH   1   7
ATOM      7  C8  <0> d   1       0.306  -4.383  -4.601  0.00  0.00     0.032 A 
ATOM      8  C7  <0> d   1       0.234  -3.034  -4.943  0.00  0.00     0.019 A 
ATOM      9  C6  <0> d   1       0.379  -2.068  -3.970  0.00  0.00     0.038 A 
ATOM     10  C5  <0> d   1       0.596  -2.435  -2.647  0.00  0.00     0.071 A 
ATOM     11  C10 <0> d   1       0.673  -3.776  -2.300  0.00  0.00     0.077 A 
ATOM     12  C9  <0> d   1       0.524  -4.753  -3.269  0.00  0.00     0.122 A 
ATOM     13  O2  <0> d   1       0.594  -6.066  -2.929  0.00  0.00    -0.191 OA
BRANCH  10  14
ATOM     14  O1  <0> d   1       0.737  -1.478  -1.693  0.00  0.00    -0.347 OA
BRANCH  14  15
ATOM     15  C4  <0> d   1       0.646  -0.118  -2.120  0.00  0.00     0.208 C 
BRANCH  15  16
ATOM     16  C2  <0> d   1       0.826   0.794  -0.934  0.00  0.00    -0.069 C 
ATOM     17  C1  <0> d   1       0.773   2.289  -1.118  0.00  0.00     0.044 C 
ATOM     18  C3  <0> d   1       1.029   0.287   0.257  0.00  0.00     0.016 C 
ENDBRANCH  15  16
ENDBRANCH  14  15
ENDBRANCH  10  14
ENDBRANCH   1   7
BRANCH   2  19
ATOM     19  C14 <0> d   1      -1.957  -4.483  -6.816  0.00  0.00    -0.022 A 
ATOM     20  C19 <0> d   1      -2.133  -3.850  -8.046  0.00  0.00     0.014 A 
ATOM     21  C18 <0> d   1      -3.157  -2.939  -8.210  0.00  0.00     0.020 A 
ATOM     22  C17 <0> d   1      -4.000  -2.644  -7.153  0.00  0.00     0.011 A 
ATOM     23  C16 <0> d   1      -3.826  -3.265  -5.928  0.00  0.00     0.020 A 
ATOM     24 Br1  <0> d   1      -5.396  -1.389  -7.383  0.00  0.00    -0.051 Br
ATOM     25  C15 <0> d   1      -2.809  -4.182  -5.755  0.00  0.00     0.014 A 
ENDBRANCH   2  19
TORSDOF 5
