REMARK  6 active torsions:
REMARK  status: ('A' for Active; 'I' for Inactive)
REMARK    1  A    between atoms: C5_6  and  C6_7 
REMARK    2  A    between atoms: C13_15  and  C15_18 
REMARK    3  A    between atoms: C15_18  and  N1_19 
REMARK    4  A    between atoms: N2_22  and  C20_25 
REMARK    5  A    between atoms: C20_25  and  C21_26 
REMARK    6  A    between atoms: C21_26  and  O3_27 
ROOT
ATOM      1  C6  <0> d   1       0.030  -0.306   2.517  0.00  0.00     0.060 C 
ATOM      2  C7  <0> d   1       0.052  -1.211   3.537  0.00  0.00     0.128 A 
ATOM      3  C8  <0> d   1       0.055  -0.900   4.923  0.00  0.00     0.218 A 
ATOM      4  O1  <0> d   1       0.039   0.208   5.434  0.00  0.00    -0.284 OA
ATOM      5  C9  <0> d   1       0.082  -2.202   5.611  0.00  0.00     0.051 A 
ATOM      6  C10 <0> d   1       0.098  -2.579   6.954  0.00  0.00     0.021 A 
ATOM      7  C11 <0> d   1       0.123  -3.904   7.288  0.00  0.00     0.041 A 
ATOM      8  C12 <0> d   1       0.135  -4.878   6.293  0.00  0.00     0.118 A 
ATOM      9  C13 <0> d   1       0.119  -4.518   4.955  0.00  0.00     0.039 A 
ATOM     10  C14 <0> d   1       0.093  -3.177   4.599  0.00  0.00     0.101 A 
ATOM     11  O2  <0> d   1       0.069  -2.558   3.399  0.00  0.00    -0.305 OA
ATOM     12  O4  <0> d   1       0.161  -6.191   6.637  0.00  0.00    -0.191 OA
ENDROOT
BRANCH   9  13
ATOM     13  C15 <0> d   1       0.132  -5.582   3.888  0.00  0.00     0.279 C 
BRANCH  13  14
ATOM     14  N1  <0> d   1      -1.248  -5.953   3.550  0.00  0.00    -0.064 N 
ATOM     15  C19 <0> d   1      -1.239  -6.901   2.428  0.00  0.00     0.265 C 
ATOM     16  C18 <0> d   1      -2.678  -7.274   2.063  0.00  0.00     0.300 C 
ATOM     17  N2  <0> d   1      -3.336  -7.877   3.231  0.00  0.00     0.093 N 
ATOM     18  C17 <0> d   1      -3.330  -6.948   4.370  0.00  0.00     0.300 C 
ATOM     19  C16 <0> d   1      -1.886  -6.578   4.716  0.00  0.00     0.265 C 
ATOM     20  H24 <0> d   1      -1.764  -5.127   3.288  0.00  0.00     0.280 HD
BRANCH  17  21
ATOM     21  C20 <0> d   1      -4.704  -8.300   2.904  0.00  0.00     0.298 C 
BRANCH  21  22
ATOM     22  C21 <0> d   1      -4.655  -9.445   1.890  0.00  0.00     0.194 C 
BRANCH  22  23
ATOM     23  O3  <0> d   1      -4.038 -10.586   2.489  0.00  0.00    -0.399 OA
ATOM     24  H23 <0> d   1      -3.973 -11.352   1.902  0.00  0.00     0.209 HD
ENDBRANCH  22  23
ENDBRANCH  21  22
ENDBRANCH  17  21
ENDBRANCH  13  14
ENDBRANCH   9  13
BRANCH   1  25
ATOM     25  C5  <0> d   1       0.023  -0.752   1.176  0.00  0.00     0.013 A 
ATOM     26  C2  <0> d   1       0.002  -0.004   0.002  0.00  0.00    -0.044 A 
ATOM     27  C1  <0> d   1      -0.018   1.503   0.010  0.00  0.00     0.049 C 
ATOM     28  C3  <0> d   1       0.007  -0.729  -1.164  0.00  0.00     0.015 A 
ATOM     29  C4  <0> d   1       0.026  -2.084  -1.099  0.00  0.00     0.051 A 
ATOM     30  S1  <0> d   1       0.038  -2.420   0.547  0.00  0.00    -0.102 SA
ENDBRANCH   1  25
TORSDOF 6
