REMARK  5 active torsions:
REMARK  status: ('A' for Active; 'I' for Inactive)
REMARK    1  A    between atoms: C8_8  and  C11_13 
REMARK    2  A    between atoms: C11_13  and  N1_14 
REMARK    3  A    between atoms: N2_17  and  C16_20 
REMARK    4  A    between atoms: C16_20  and  C17_21 
REMARK    5  A    between atoms: C18_22  and  C19_23 
ROOT
ATOM      1  N1  <0> d   1      -0.656   1.647  -1.183  0.00  0.00    -0.064 N 
ATOM      2  C12 <0> d   1       0.048   1.140   0.004  0.00  0.00     0.265 C 
ATOM      3  C13 <0> d   1      -0.601   1.716   1.264  0.00  0.00     0.300 C 
ATOM      4  N2  <0> d   1      -0.550   3.184   1.212  0.00  0.00     0.095 N 
ATOM      5  C14 <0> d   1      -1.253   3.691   0.025  0.00  0.00     0.300 C 
ATOM      6  C15 <0> d   1      -0.604   3.115  -1.235  0.00  0.00     0.265 C 
ATOM      7  H29 <0> d   1      -1.711   1.347  -1.106  0.00  0.00     0.280 HD
ENDROOT
BRANCH   1   8
ATOM      8  C11 <0> d   1      -0.109   1.057  -2.412  0.00  0.00     0.274 C 
BRANCH   8   9
ATOM      9  C8  <0> d   1      -0.785   1.673  -3.609  0.00  0.00    -0.014 A 
ATOM     10  C6  <0> d   1      -2.160   1.310  -3.967  0.00  0.00     0.007 A 
ATOM     11  C5  <0> d   1      -2.755   1.913  -5.088  0.00  0.00     0.096 A 
ATOM     12  C7  <0> d   1      -2.886   0.392  -3.201  0.00  0.00     0.021 A 
ATOM     13  C4  <0> d   1      -4.059   1.580  -5.430  0.00  0.00    -0.027 A 
ATOM     14  O2  <0> d   1      -2.054   2.804  -5.823  0.00  0.00    -0.274 OA
ATOM     15  C3  <0> d   1      -4.756   0.668  -4.665  0.00  0.00     0.016 A 
ATOM     16  C25 <0> d   1      -4.711   2.212  -6.633  0.00  0.00     0.051 C 
ATOM     17  C2  <0> d   1      -4.168   0.078  -3.555  0.00  0.00    -0.060 A 
ATOM     18  C1  <0> d   1      -4.949  -0.915  -2.734  0.00  0.00     0.048 C 
ATOM     19  C10 <0> d   1      -0.794   3.136  -5.505  0.00  0.00     0.288 A 
ATOM     20  C9  <0> d   1      -0.137   2.574  -4.389  0.00  0.00     0.092 A 
ATOM     21  O1  <0> d   1      -0.201   3.944  -6.197  0.00  0.00    -0.260 OA
ENDBRANCH   8   9
ENDBRANCH   1   8
BRANCH   4  22
ATOM     22  C16 <0> d   1      -1.097   3.774   2.441  0.00  0.00     0.300 C 
BRANCH  22  23
ATOM     23  C17 <0> d   1      -0.204   3.428   3.604  0.00  0.00     0.004 C 
ATOM     24  C18 <0> d   1       0.292   4.391   4.369  0.00  0.00     0.009 C 
BRANCH  24  25
ATOM     25  C19 <0> d   1       1.168   4.052   5.510  0.00  0.00    -0.036 A 
ATOM     26  C24 <0> d   1       1.691   5.064   6.316  0.00  0.00     0.011 A 
ATOM     27  C23 <0> d   1       2.508   4.740   7.380  0.00  0.00     0.001 A 
ATOM     28  C22 <0> d   1       2.808   3.417   7.649  0.00  0.00     0.000 A 
ATOM     29  C21 <0> d   1       2.292   2.409   6.853  0.00  0.00     0.001 A 
ATOM     30  C20 <0> d   1       1.470   2.719   5.789  0.00  0.00     0.011 A 
ENDBRANCH  24  25
ENDBRANCH  22  23
ENDBRANCH   4  22
TORSDOF 5
