REMARK  6 active torsions:
REMARK  status: ('A' for Active; 'I' for Inactive)
REMARK    1  A    between atoms: C2_2  and  N1_3 
REMARK    2  A    between atoms: N2_6  and  C7_9 
REMARK    3  A    between atoms: C7_9  and  C8_10 
REMARK    4  A    between atoms: C9_11  and  O4_30 
REMARK    5  A    between atoms: C15_18  and  C17_21 
REMARK    6  A    between atoms: C20_24  and  O3_27 
ROOT
ATOM      1  C8  <0> d   1      -0.018   1.503   0.010  0.00  0.00     0.038 A 
ATOM      2  C9  <0> d   1       1.170   2.213   0.003  0.00  0.00     0.076 A 
ATOM      3  C10 <0> d   1       1.164   3.606   0.010  0.00  0.00     0.038 A 
ATOM      4  C11 <0> d   1      -0.018   4.290   0.024  0.00  0.00     0.021 A 
ATOM      5  C12 <0> d   1      -1.224   3.589   0.032  0.00  0.00     0.050 A 
ATOM      6  C13 <0> d   1      -1.229   2.183   0.020  0.00  0.00     0.100 A 
ATOM      7  O1  <0> d   1      -2.395   1.506   0.032  0.00  0.00    -0.313 OA
ATOM      8  C14 <0> d   1      -3.589   2.105   0.046  0.00  0.00     0.065 A 
ATOM      9  C15 <0> d   1      -3.730   3.455   0.054  0.00  0.00     0.054 A 
ATOM     10  C16 <0> d   1      -2.519   4.293   0.047  0.00  0.00     0.198 A 
ATOM     11  O2  <0> d   1      -2.584   5.510   0.054  0.00  0.00    -0.286 OA
ATOM     12  C24 <0> d   1      -4.828   1.247   0.054  0.00  0.00     0.077 C 
ENDROOT
BRANCH   1  13
ATOM     13  C7  <0> d   1       0.002  -0.004   0.002  0.00  0.00     0.317 C 
BRANCH  13  14
ATOM     14  N2  <0> d   1       0.022  -0.501   1.384  0.00  0.00     0.096 N 
ATOM     15  C4  <0> d   1      -0.196  -1.954   1.425  0.00  0.00     0.303 C 
ATOM     16  C3  <0> d   1      -0.248  -2.419   2.882  0.00  0.00     0.302 C 
ATOM     17  N1  <0> d   1       1.009  -2.059   3.553  0.00  0.00     0.091 N 
ATOM     18  C6  <0> d   1       1.227  -0.606   3.513  0.00  0.00     0.302 C 
ATOM     19  C5  <0> d   1       1.279  -0.141   2.055  0.00  0.00     0.303 C 
BRANCH  17  20
ATOM     20  C2  <0> d   1       1.029  -2.556   4.935  0.00  0.00     0.268 C 
ATOM     21  C1  <0> d   1       2.433  -2.386   5.518  0.00  0.00     0.037 C 
ENDBRANCH  17  20
ENDBRANCH  13  14
ENDBRANCH   1  13
BRANCH   2  22
ATOM     22  O4  <0> d   1       2.352   1.546  -0.012  0.00  0.00    -0.360 OA
ATOM     23  H28 <0> d   1       3.300   2.106  -0.018  0.00  0.00     0.217 HD
ENDBRANCH   2  22
BRANCH   9  24
ATOM     24  C17 <0> d   1      -5.078   4.075   0.070  0.00  0.00    -0.019 A 
ATOM     25  C22 <0> d   1      -5.509   4.835  -1.016  0.00  0.00     0.015 A 
ATOM     26  C21 <0> d   1      -6.763   5.409  -0.999  0.00  0.00     0.037 A 
ATOM     27  C20 <0> d   1      -7.595   5.231   0.098  0.00  0.00     0.068 A 
ATOM     28  C19 <0> d   1      -7.168   4.474   1.181  0.00  0.00     0.037 A 
ATOM     29  C18 <0> d   1      -5.917   3.893   1.167  0.00  0.00     0.015 A 
BRANCH  27  30
ATOM     30  O3  <0> d   1      -8.830   5.797   0.111  0.00  0.00    -0.356 OA
ATOM     31  C23 <0> d   1      -9.634   5.573   1.271  0.00  0.00     0.210 C 
ENDBRANCH  27  30
ENDBRANCH   9  24
TORSDOF 6
