REMARK  4 active torsions:
REMARK  status: ('A' for Active; 'I' for Inactive)
REMARK    1  A    between atoms: C6_6  and  C7_7 
REMARK    2  A    between atoms: C9_12  and  C10_13 
REMARK    3  A    between atoms: C13_16  and  O2_20 
REMARK    4  A    between atoms: C15_18  and  O1_19 
ROOT
ATOM      1  C7  <0> d   1      -1.216  -0.873   0.089  0.00  0.00     0.022 A 
ATOM      2  C8  <0> d   1      -2.246  -0.706   0.967  0.00  0.00     0.124 A 
ATOM      3  N1  <0> d   1      -3.286  -1.445   0.529  0.00  0.00    -0.288 N 
ATOM      4  H1  <0> d   1      -4.152  -1.515   0.960  0.00  0.00     0.188 HD
ATOM      5  N2  <0> d   1      -2.903  -2.094  -0.650  0.00  0.00    -0.174 NA
ATOM      6  C9  <0> d   1      -1.663  -1.754  -0.928  0.00  0.00     0.102 A 
ENDROOT
BRANCH   6   7
ATOM      7  C10 <0> d   1      -0.872  -2.213  -2.095  0.00  0.00     0.029 A 
ATOM      8  C15 <0> d   1      -0.845  -3.570  -2.434  0.00  0.00     0.081 A 
ATOM      9  C14 <0> d   1      -0.108  -3.991  -3.528  0.00  0.00     0.074 A 
ATOM     10  C13 <0> d   1       0.608  -3.071  -4.278  0.00  0.00     0.068 A 
ATOM     11  C12 <0> d   1       0.586  -1.724  -3.939  0.00  0.00     0.037 A 
ATOM     12  C11 <0> d   1      -0.149  -1.294  -2.854  0.00  0.00     0.019 A 
BRANCH   8  13
ATOM     13  O1  <0> d   1      -1.543  -4.471  -1.695  0.00  0.00    -0.360 OA
ATOM     14  H10 <0> d   1      -2.448  -4.615  -2.003  0.00  0.00     0.217 HD
ENDBRANCH   8  13
BRANCH  10  15
ATOM     15  O2  <0> d   1       1.334  -3.487  -5.349  0.00  0.00    -0.361 OA
ATOM     16  H11 <0> d   1       2.246  -3.728  -5.136  0.00  0.00     0.217 HD
ENDBRANCH  10  15
ENDBRANCH   6   7
BRANCH   1  17
ATOM     17  C6  <0> d   1       0.124  -0.244   0.179  0.00  0.00    -0.022 A 
ATOM     18  C1  <0> d   1       0.242   1.141   0.264  0.00  0.00     0.014 A 
ATOM     19  C2  <0> d   1       1.492   1.722   0.347  0.00  0.00     0.020 A 
ATOM     20  C3  <0> d   1       2.627   0.929   0.347  0.00  0.00     0.011 A 
ATOM     21  C4  <0> d   1       2.515  -0.448   0.264  0.00  0.00     0.020 A 
ATOM     22 Br1  <0> d   1       4.335   1.731   0.460  0.00  0.00    -0.051 Br
ATOM     23  C5  <0> d   1       1.270  -1.038   0.180  0.00  0.00     0.014 A 
ENDBRANCH   1  17
TORSDOF 4
