REMARK  8 active torsions:
REMARK  status: ('A' for Active; 'I' for Inactive)
REMARK    1  A    between atoms: C3_3  and  C19_26 
REMARK    2  A    between atoms: C4_4  and  C5_8 
REMARK    3  A    between atoms: C8_11  and  O2_15 
REMARK    4  A    between atoms: C10_13  and  O1_14 
REMARK    5  A    between atoms: O2_15  and  C11_16 
REMARK    6  A    between atoms: C11_16  and  C12_17 
REMARK    7  A    between atoms: C12_17  and  N3_18 
REMARK    8  A    between atoms: C22_29  and  O4_32 
ROOT
ATOM      1  C5  <0> d   1       0.932  -4.137  -1.716  0.00  0.00     0.029 A 
ATOM      2  C6  <0> d   1       0.828  -3.611  -3.002  0.00  0.00     0.019 A 
ATOM      3  C7  <0> d   1       0.739  -4.458  -4.088  0.00  0.00     0.038 A 
ATOM      4  C8  <0> d   1       0.754  -5.834  -3.903  0.00  0.00     0.071 A 
ATOM      5  C9  <0> d   1       0.857  -6.365  -2.626  0.00  0.00     0.074 A 
ATOM      6  C10 <0> d   1       0.952  -5.523  -1.531  0.00  0.00     0.081 A 
ENDROOT
BRANCH   1   7
ATOM      7  C4  <0> d   1       1.028  -3.230  -0.548  0.00  0.00     0.103 A 
ATOM      8  C3  <0> d   1       0.215  -2.094  -0.303  0.00  0.00     0.029 A 
ATOM      9  C2  <0> d   1       0.627  -1.540   0.872  0.00  0.00     0.037 A 
ATOM     10  C1  <0> d   1       0.047  -0.313   1.526  0.00  0.00     0.070 C 
ATOM     11  N2  <0> d   1       1.651  -2.283   1.342  0.00  0.00    -0.281 N 
ATOM     12  N1  <0> d   1       1.882  -3.334   0.447  0.00  0.00    -0.173 NA
ATOM     13  H1  <0> d   1       2.142  -2.118   2.162  0.00  0.00     0.189 HD
BRANCH   8  14
ATOM     14  C19 <0> d   1      -0.885  -1.599  -1.168  0.00  0.00    -0.021 A 
ATOM     15  C24 <0> d   1      -0.758  -0.379  -1.829  0.00  0.00     0.015 A 
ATOM     16  C23 <0> d   1      -1.779   0.075  -2.638  0.00  0.00     0.037 A 
ATOM     17  C22 <0> d   1      -2.937  -0.676  -2.784  0.00  0.00     0.068 A 
ATOM     18  C21 <0> d   1      -3.069  -1.889  -2.122  0.00  0.00     0.037 A 
ATOM     19  C20 <0> d   1      -2.049  -2.352  -1.317  0.00  0.00     0.015 A 
BRANCH  17  20
ATOM     20  O4  <0> d   1      -3.944  -0.224  -3.577  0.00  0.00    -0.356 OA
ATOM     21  C25 <0> d   1      -3.742   1.032  -4.228  0.00  0.00     0.210 C 
ENDBRANCH  17  20
ENDBRANCH   8  14
ENDBRANCH   1   7
BRANCH   6  22
ATOM     22  O1  <0> d   1       1.059  -6.042  -0.280  0.00  0.00    -0.360 OA
ATOM     23  H10 <0> d   1       0.210  -6.195   0.157  0.00  0.00     0.217 HD
ENDBRANCH   6  22
BRANCH   4  24
ATOM     24  O2  <0> d   1       0.666  -6.663  -4.976  0.00  0.00    -0.349 OA
BRANCH  24  25
ATOM     25  C11 <0> d   1       0.562  -6.049  -6.263  0.00  0.00     0.206 C 
BRANCH  25  26
ATOM     26  C12 <0> d   1       0.474  -7.133  -7.339  0.00  0.00     0.299 C 
BRANCH  26  27
ATOM     27  N3  <0> d   1      -0.768  -7.898  -7.163  0.00  0.00     0.095 N 
ATOM     28  C16 <0> d   1      -1.929  -7.133  -7.639  0.00  0.00     0.303 C 
ATOM     29  C15 <0> d   1      -3.205  -7.941  -7.383  0.00  0.00     0.146 C 
ATOM     30  O3  <0> d   1      -3.094  -9.214  -8.026  0.00  0.00    -0.378 OA
ATOM     31  C17 <0> d   1      -3.389  -8.143  -5.878  0.00  0.00     0.041 C 
ATOM     32  C14 <0> d   1      -1.974  -9.986  -7.586  0.00  0.00     0.146 C 
ATOM     33  C13 <0> d   1      -0.686  -9.199  -7.844  0.00  0.00     0.303 C 
ATOM     34  C18 <0> d   1      -1.928 -11.307  -8.356  0.00  0.00     0.041 C 
ENDBRANCH  26  27
ENDBRANCH  25  26
ENDBRANCH  24  25
ENDBRANCH   4  24
TORSDOF 8
