REMARK  6 active torsions:
REMARK  status: ('A' for Active; 'I' for Inactive)
REMARK    1  A    between atoms: C5_5  and  C17_20 
REMARK    2  A    between atoms: C10_11  and  C11_12 
REMARK    3  A    between atoms: C17_20  and  N1_21 
REMARK    4  A    between atoms: N2_24  and  C22_27 
REMARK    5  A    between atoms: C22_27  and  C23_28 
REMARK    6  A    between atoms: C23_28  and  O3_29 
ROOT
ATOM      1  C1  <0> d   1       2.657   1.050  -1.375  0.00  0.00     0.049 C 
ATOM      2  C2  <0> d   1       1.406   1.856  -1.142  0.00  0.00    -0.042 A 
ATOM      3  C3  <0> d   1       0.201   1.226  -1.003  0.00  0.00     0.048 A 
ATOM      4  C4  <0> d   1      -0.957   1.969  -0.792  0.00  0.00     0.118 A 
ATOM      5  C5  <0> d   1      -0.902   3.352  -0.710  0.00  0.00     0.041 A 
ATOM      6  C6  <0> d   1       0.314   4.008  -0.849  0.00  0.00     0.102 A 
ATOM      7  C7  <0> d   1       1.475   3.248  -1.067  0.00  0.00     0.057 A 
ATOM      8  C8  <0> d   1       2.588   4.209  -1.172  0.00  0.00     0.219 A 
ATOM      9  O1  <0> d   1       3.767   3.967  -1.361  0.00  0.00    -0.284 OA
ATOM     10  C9  <0> d   1       1.955   5.526  -0.998  0.00  0.00     0.128 A 
ATOM     11  C10 <0> d   1       2.584   6.727  -1.018  0.00  0.00     0.053 C 
ATOM     12  O2  <0> d   1       0.629   5.321  -0.815  0.00  0.00    -0.305 OA
ATOM     13  O4  <0> d   1      -2.149   1.334  -0.661  0.00  0.00    -0.191 OA
ENDROOT
BRANCH   5  14
ATOM     14  C17 <0> d   1      -2.163   4.143  -0.476  0.00  0.00     0.317 C 
BRANCH  14  15
ATOM     15  N1  <0> d   1      -2.774   4.484  -1.767  0.00  0.00     0.096 N 
ATOM     16  C21 <0> d   1      -4.119   5.046  -1.581  0.00  0.00     0.303 C 
ATOM     17  C20 <0> d   1      -4.752   5.312  -2.949  0.00  0.00     0.302 C 
ATOM     18  N2  <0> d   1      -3.898   6.237  -3.708  0.00  0.00     0.093 N 
ATOM     19  C19 <0> d   1      -2.553   5.676  -3.894  0.00  0.00     0.302 C 
ATOM     20  C18 <0> d   1      -1.921   5.409  -2.526  0.00  0.00     0.303 C 
BRANCH  18  21
ATOM     21  C22 <0> d   1      -4.510   6.578  -5.000  0.00  0.00     0.298 C 
BRANCH  21  22
ATOM     22  C23 <0> d   1      -4.460   5.360  -5.925  0.00  0.00     0.194 C 
BRANCH  22  23
ATOM     23  O3  <0> d   1      -5.306   4.333  -5.405  0.00  0.00    -0.399 OA
ATOM     24  H24 <0> d   1      -5.399   3.375  -5.939  0.00  0.00     0.209 HD
ENDBRANCH  22  23
ENDBRANCH  21  22
ENDBRANCH  18  21
ENDBRANCH  14  15
ENDBRANCH   5  14
BRANCH  11  25
ATOM     25  C11 <0> d   1       1.802   7.969  -0.940  0.00  0.00    -0.032 A 
ATOM     26  C16 <0> d   1       2.431   9.208  -1.101  0.00  0.00     0.030 A 
ATOM     27  C15 <0> d   1       1.689  10.369  -1.032  0.00  0.00     0.011 A 
ATOM     28  C14 <0> d   1       0.326  10.309  -0.792  0.00  0.00     0.019 A 
ATOM     29 Br1  <0> d   1       2.535  12.045  -1.257  0.00  0.00    -0.051 Br
ATOM     30  C13 <0> d   1      -0.303   9.087  -0.626  0.00  0.00     0.002 A 
ATOM     31  C12 <0> d   1       0.424   7.918  -0.698  0.00  0.00     0.011 A 
ENDBRANCH  11  25
TORSDOF 6
