REMARK  7 active torsions:
REMARK  status: ('A' for Active; 'I' for Inactive)
REMARK    1  A    between atoms: C2_2  and  O1_3 
REMARK    2  A    between atoms: O1_3  and  C3_4 
REMARK    3  A    between atoms: C8_9  and  O2_10 
REMARK    4  A    between atoms: O2_10  and  C9_11 
REMARK    5  A    between atoms: C15_18  and  C19_26 
REMARK    6  A    between atoms: C17_21  and  C18_22 
REMARK    7  A    between atoms: C19_26  and  N1_27 
ROOT
ATOM      1  C9  <0> d   1      -3.697   3.485   0.038  0.00  0.00     0.165 A 
ATOM      2  C10 <0> d   1      -2.522   4.289   0.049  0.00  0.00     0.221 A 
ATOM      3  O3  <0> d   1      -2.586   5.507   0.057  0.00  0.00    -0.284 OA
ATOM      4  C11 <0> d   1      -1.226   3.589   0.033  0.00  0.00     0.052 A 
ATOM      5  C12 <0> d   1      -0.020   4.292   0.025  0.00  0.00     0.021 A 
ATOM      6  C13 <0> d   1       1.162   3.607   0.010  0.00  0.00     0.041 A 
ATOM      7  C14 <0> d   1       1.169   2.214   0.003  0.00  0.00     0.118 A 
ATOM      8  C15 <0> d   1      -0.018   1.503   0.010  0.00  0.00     0.039 A 
ATOM      9  C16 <0> d   1      -1.228   2.183   0.020  0.00  0.00     0.101 A 
ATOM     10  O4  <0> d   1      -2.399   1.515   0.022  0.00  0.00    -0.301 OA
ATOM     11  C17 <0> d   1      -3.583   2.142   0.031  0.00  0.00     0.197 A 
ATOM     12  O5  <0> d   1       2.352   1.548  -0.012  0.00  0.00    -0.191 OA
ENDROOT
BRANCH   1  13
ATOM     13  O2  <0> d   1      -4.927   4.068   0.046  0.00  0.00    -0.301 OA
BRANCH  13  14
ATOM     14  C8  <0> d   1      -5.499   4.336   1.250  0.00  0.00     0.109 A 
ATOM     15  C3  <0> d   1      -6.755   4.932   1.309  0.00  0.00     0.102 A 
ATOM     16  C4  <0> d   1      -7.333   5.202   2.539  0.00  0.00     0.039 A 
ATOM     17  C5  <0> d   1      -6.663   4.879   3.704  0.00  0.00     0.003 A 
ATOM     18  C6  <0> d   1      -5.415   4.287   3.646  0.00  0.00     0.003 A 
ATOM     19  C7  <0> d   1      -4.834   4.010   2.422  0.00  0.00     0.040 A 
BRANCH  15  20
ATOM     20  O1  <0> d   1      -7.414   5.248   0.162  0.00  0.00    -0.349 OA
BRANCH  20  21
ATOM     21  C2  <0> d   1      -8.699   5.857   0.299  0.00  0.00     0.171 C 
ATOM     22  C1  <0> d   1      -9.281   6.138  -1.088  0.00  0.00     0.034 C 
ENDBRANCH  20  21
ENDBRANCH  15  20
ENDBRANCH  13  14
ENDBRANCH   1  13
BRANCH  11  23
ATOM     23  C18 <0> d   1      -4.840   1.311   0.032  0.00  0.00     0.442 C 
ATOM     24  F1  <0> d   1      -5.236   1.061  -1.286  0.00  0.00    -0.164 F 
ATOM     25  F2  <0> d   1      -4.596   0.097   0.684  0.00  0.00    -0.164 F 
ATOM     26  F3  <0> d   1      -5.856   2.003   0.700  0.00  0.00    -0.164 F 
ENDBRANCH  11  23
BRANCH   8  27
ATOM     27  C19 <0> d   1       0.002  -0.004   0.002  0.00  0.00     0.279 C 
BRANCH  27  28
ATOM     28  N1  <0> d   1       0.022  -0.501   1.384  0.00  0.00    -0.064 N 
ATOM     29  C23 <0> d   1      -0.196  -1.954   1.425  0.00  0.00     0.265 C 
ATOM     30  C22 <0> d   1      -0.248  -2.419   2.882  0.00  0.00     0.299 C 
ATOM     31  N2  <0> d   1       1.009  -2.059   3.553  0.00  0.00     0.087 N 
ATOM     32  C21 <0> d   1       1.227  -0.606   3.513  0.00  0.00     0.299 C 
ATOM     33  C24 <0> d   1       1.029  -2.556   4.935  0.00  0.00     0.310 C 
ATOM     34  C20 <0> d   1       1.279  -0.141   2.055  0.00  0.00     0.265 C 
ATOM     35  H25 <0> d   1      -0.804  -0.018   1.927  0.00  0.00     0.280 HD
ENDBRANCH  27  28
ENDBRANCH   8  27
TORSDOF 7
