REMARK  8 active torsions:
REMARK  status: ('A' for Active; 'I' for Inactive)
REMARK    1  A    between atoms: N2_5  and  C6_8 
REMARK    2  A    between atoms: C6_8  and  C7_9 
REMARK    3  A    between atoms: C8_10  and  O4_27 
REMARK    4  A    between atoms: C11_13  and  C13_16 
REMARK    5  A    between atoms: C12_14  and  O1_15 
REMARK    6  A    between atoms: C13_16  and  C14_18 
REMARK    7  A    between atoms: C14_18  and  C15_19 
REMARK    8  A    between atoms: C18_22  and  O3_25 
ROOT
ATOM      1  C7  <0> d   1      -4.616   3.936   3.298  0.00  0.00     0.037 A 
ATOM      2  C8  <0> d   1      -5.399   4.376   2.240  0.00  0.00     0.076 A 
ATOM      3  C9  <0> d   1      -4.994   4.153   0.926  0.00  0.00     0.038 A 
ATOM      4  C10 <0> d   1      -3.821   3.506   0.665  0.00  0.00     0.021 A 
ATOM      5  C11 <0> d   1      -3.021   3.050   1.722  0.00  0.00     0.044 A 
ATOM      6  C12 <0> d   1      -3.427   3.273   3.050  0.00  0.00     0.090 A 
ENDROOT
BRANCH   5   7
ATOM      7  C13 <0> d   1      -1.764   2.350   1.444  0.00  0.00     0.166 C 
ATOM      8  O2  <0> d   1      -1.072   1.961   2.361  0.00  0.00    -0.292 OA
BRANCH   7   9
ATOM      9  C14 <0> d   1      -1.333   2.113   0.020  0.00  0.00     0.122 C 
BRANCH   9  10
ATOM     10  C15 <0> d   1      -0.017   1.378   0.010  0.00  0.00    -0.051 A 
ATOM     11  C20 <0> d   1       0.002  -0.004   0.002  0.00  0.00     0.010 A 
ATOM     12  C19 <0> d   1       1.207  -0.680  -0.013  0.00  0.00     0.037 A 
ATOM     13  C18 <0> d   1       2.399   0.030  -0.021  0.00  0.00     0.068 A 
ATOM     14  C17 <0> d   1       2.377   1.417  -0.013  0.00  0.00     0.037 A 
ATOM     15  C16 <0> d   1       1.170   2.088   0.002  0.00  0.00     0.010 A 
BRANCH  13  16
ATOM     16  O3  <0> d   1       3.586  -0.632  -0.035  0.00  0.00    -0.356 OA
ATOM     17  C21 <0> d   1       4.772   0.164  -0.042  0.00  0.00     0.210 C 
ENDBRANCH  13  16
ENDBRANCH   9  10
ENDBRANCH   7   9
ENDBRANCH   5   7
BRANCH   6  18
ATOM     18  O1  <0> d   1      -2.659   2.841   4.080  0.00  0.00    -0.359 OA
ATOM     19  H26 <0> d   1      -1.714   2.315   3.879  0.00  0.00     0.217 HD
ENDBRANCH   6  18
BRANCH   1  20
ATOM     20  C6  <0> d   1      -5.062   4.180   4.717  0.00  0.00     0.317 C 
BRANCH  20  21
ATOM     21  N2  <0> d   1      -4.531   5.469   5.182  0.00  0.00     0.096 N 
ATOM     22  C3  <0> d   1      -5.133   5.853   6.467  0.00  0.00     0.300 C 
ATOM     23  C2  <0> d   1      -4.615   7.234   6.876  0.00  0.00     0.264 C 
ATOM     24  N1  <0> d   1      -3.149   7.196   6.975  0.00  0.00    -0.072 N 
ATOM     25  C1  <0> d   1      -2.619   8.484   7.440  0.00  0.00     0.269 C 
ATOM     26  C5  <0> d   1      -2.548   6.811   5.690  0.00  0.00     0.264 C 
ATOM     27  H27 <0> d   1      -2.879   6.432   7.719  0.00  0.00     0.279 HD
ATOM     28  C4  <0> d   1      -3.065   5.430   5.281  0.00  0.00     0.300 C 
ENDBRANCH  20  21
ENDBRANCH   1  20
BRANCH   2  29
ATOM     29  O4  <0> d   1      -6.564   5.026   2.486  0.00  0.00    -0.360 OA
ATOM     30  H25 <0> d   1      -7.186   5.375   1.649  0.00  0.00     0.217 HD
ENDBRANCH   2  29
TORSDOF 8
