REMARK  5 active torsions:
REMARK  status: ('A' for Active; 'I' for Inactive)
REMARK    1  A    between atoms: C2_2  and  N1_3 
REMARK    2  A    between atoms: C4_5  and  C11_12 
REMARK    3  A    between atoms: C17_19  and  O3_31 
REMARK    4  A    between atoms: C18_20  and  C20_23 
REMARK    5  A    between atoms: C20_23  and  N2_24 
ROOT
ATOM      1  C11 <0> d   1       3.484  -3.404  -0.048  0.00  0.00     0.055 C 
ATOM      2  C12 <0> d   1       2.858  -2.194  -0.036  0.00  0.00     0.128 A 
ATOM      3  C13 <0> d   1       3.501  -0.928  -0.036  0.00  0.00     0.218 A 
ATOM      4  O1  <0> d   1       4.701  -0.706  -0.046  0.00  0.00    -0.284 OA
ATOM      5  C14 <0> d   1       2.408   0.060  -0.021  0.00  0.00     0.051 A 
ATOM      6  C15 <0> d   1       2.374   1.455  -0.013  0.00  0.00     0.021 A 
ATOM      7  C16 <0> d   1       1.173   2.105   0.002  0.00  0.00     0.038 A 
ATOM      8  C17 <0> d   1      -0.017   1.381   0.010  0.00  0.00     0.076 A 
ATOM      9  C18 <0> d   1       0.002  -0.004   0.002  0.00  0.00     0.036 A 
ATOM     10  C19 <0> d   1       1.215  -0.680  -0.013  0.00  0.00     0.101 A 
ATOM     11  O2  <0> d   1       1.519  -1.996  -0.023  0.00  0.00    -0.305 OA
ENDROOT
BRANCH   1  12
ATOM     12  C4  <0> d   1       2.695  -4.635  -0.047  0.00  0.00    -0.005 A 
ATOM     13  C3  <0> d   1       1.320  -4.735  -0.029  0.00  0.00     0.103 A 
ATOM     14  N1  <0> d   1       0.962  -6.043  -0.037  0.00  0.00    -0.356 N 
ATOM     15  C6  <0> d   1       2.081  -6.851  -0.052  0.00  0.00     0.045 A 
ATOM     16  C5  <0> d   1       3.210  -6.017  -0.058  0.00  0.00     0.002 A 
ATOM     17  C7  <0> d   1       2.254  -8.232  -0.060  0.00  0.00     0.030 A 
ATOM     18  C10 <0> d   1       4.488  -6.571  -0.073  0.00  0.00     0.014 A 
ATOM     19  C9  <0> d   1       4.638  -7.941  -0.081  0.00  0.00     0.001 A 
ATOM     20  C8  <0> d   1       3.524  -8.766  -0.075  0.00  0.00     0.002 A 
BRANCH  14  21
ATOM     21  C2  <0> d   1      -0.419  -6.531  -0.026  0.00  0.00     0.124 C 
ATOM     22  C1  <0> d   1      -0.845  -6.825   1.414  0.00  0.00     0.027 C 
ENDBRANCH  14  21
ENDBRANCH   1  12
BRANCH   9  23
ATOM     23  C20 <0> d   1      -1.292  -0.776   0.010  0.00  0.00     0.279 C 
BRANCH  23  24
ATOM     24  N2  <0> d   1      -1.725  -1.020  -1.373  0.00  0.00    -0.067 N 
ATOM     25  C25 <0> d   1      -3.094  -1.551  -1.409  0.00  0.00     0.239 C 
ATOM     26  C24 <0> d   1      -3.563  -1.655  -2.862  0.00  0.00     0.007 C 
ATOM     27  C23 <0> d   1      -2.616  -2.578  -3.635  0.00  0.00     0.007 C 
ATOM     28  C26 <0> d   1      -4.981  -2.229  -2.902  0.00  0.00     0.011 C 
ATOM     29  C22 <0> d   1      -1.190  -2.027  -3.540  0.00  0.00     0.028 C 
ATOM     30  C21 <0> d   1      -0.789  -1.913  -2.068  0.00  0.00     0.235 C 
ATOM     31  H28 <0> d   1      -1.726  -0.056  -1.903  0.00  0.00     0.280 HD
ENDBRANCH  23  24
ENDBRANCH   9  23
BRANCH   8  32
ATOM     32  O3  <0> d   1      -1.205   2.038   0.019  0.00  0.00    -0.360 OA
ATOM     33  H29 <0> d   1      -2.147   1.471   0.025  0.00  0.00     0.217 HD
ENDBRANCH   8  32
TORSDOF 5
