REMARK  4 active torsions:
REMARK  status: ('A' for Active; 'I' for Inactive)
REMARK    1  A    between atoms: C5_5  and  C15_18 
REMARK    2  A    between atoms: C9_10  and  C10_11 
REMARK    3  A    between atoms: C10_11  and  C11_12 
REMARK    4  A    between atoms: C15_18  and  N1_19 
ROOT
ATOM      1  C1  <0> d   1       4.509  -0.084  -0.041  0.00  0.00     0.049 C 
ATOM      2  C2  <0> d   1       3.526   1.058  -0.026  0.00  0.00    -0.042 A 
ATOM      3  C3  <0> d   1       3.976   2.349  -0.023  0.00  0.00     0.048 A 
ATOM      4  C4  <0> d   1       3.071   3.406  -0.009  0.00  0.00     0.118 A 
ATOM      5  C5  <0> d   1       1.706   3.165   0.003  0.00  0.00     0.041 A 
ATOM      6  C6  <0> d   1       1.234   1.860   0.000  0.00  0.00     0.102 A 
ATOM      7  C7  <0> d   1       2.156   0.800  -0.014  0.00  0.00     0.057 A 
ATOM      8  C8  <0> d   1       1.356  -0.437  -0.013  0.00  0.00     0.219 A 
ATOM      9  O1  <0> d   1       1.767  -1.585  -0.023  0.00  0.00    -0.284 OA
ATOM     10  C9  <0> d   1       0.002  -0.004   0.002  0.00  0.00     0.129 A 
ATOM     11  O3  <0> d   1      -0.016   1.349   0.009  0.00  0.00    -0.305 OA
ATOM     12  O5  <0> d   1       3.529   4.684  -0.006  0.00  0.00    -0.191 OA
ENDROOT
BRANCH   5  13
ATOM     13  C15 <0> d   1       0.737   4.319   0.019  0.00  0.00     0.317 C 
BRANCH  13  14
ATOM     14  N1  <0> d   1       0.435   4.686   1.409  0.00  0.00     0.097 N 
ATOM     15  C19 <0> d   1      -0.315   5.949   1.469  0.00  0.00     0.299 C 
ATOM     16  C18 <0> d   1      -0.555   6.324   2.934  0.00  0.00     0.198 C 
ATOM     17  O4  <0> d   1      -1.243   5.254   3.588  0.00  0.00    -0.388 OA
ATOM     18  C17 <0> d   1      -0.540   4.009   3.549  0.00  0.00     0.198 C 
ATOM     19  C16 <0> d   1      -0.300   3.610   2.090  0.00  0.00     0.299 C 
ENDBRANCH  13  14
ENDBRANCH   5  13
BRANCH  10  20
ATOM     20  C10 <0> d   1      -1.094  -0.816   0.007  0.00  0.00     0.078 C 
BRANCH  20  21
ATOM     21  C11 <0> d   1      -2.390  -0.254   0.022  0.00  0.00     0.077 A 
ATOM     22  O2  <0> d   1      -2.685   1.063   0.039  0.00  0.00    -0.323 OA
ATOM     23  C14 <0> d   1      -4.016   1.222   0.046  0.00  0.00     0.142 A 
ATOM     24  C13 <0> d   1      -4.606   0.005   0.044  0.00  0.00     0.027 A 
ATOM     25  C12 <0> d   1      -3.582  -0.953   0.029  0.00  0.00     0.039 A 
ENDBRANCH  20  21
ENDBRANCH  10  20
TORSDOF 4
