REMARK  6 active torsions:
REMARK  status: ('A' for Active; 'I' for Inactive)
REMARK    1  A    between atoms: C4_4  and  O5_31 
REMARK    2  A    between atoms: C5_5  and  C19_23 
REMARK    3  A    between atoms: C10_11  and  C11_12 
REMARK    4  A    between atoms: C14_15  and  O3_20 
REMARK    5  A    between atoms: C16_17  and  O2_18 
REMARK    6  A    between atoms: C19_23  and  N1_24 
ROOT
ATOM      1  C1  <0> d   1       2.552   7.791   2.304  0.00  0.00     0.049 C 
ATOM      2  C2  <0> d   1       2.532   6.306   2.049  0.00  0.00    -0.042 A 
ATOM      3  C3  <0> d   1       2.283   5.830   0.793  0.00  0.00     0.045 A 
ATOM      4  C4  <0> d   1       2.269   4.459   0.554  0.00  0.00     0.076 A 
ATOM      5  C5  <0> d   1       2.497   3.562   1.585  0.00  0.00     0.036 A 
ATOM      6  C6  <0> d   1       2.753   4.029   2.868  0.00  0.00     0.101 A 
ATOM      7  C7  <0> d   1       2.769   5.414   3.096  0.00  0.00     0.057 A 
ATOM      8  C8  <0> d   1       3.062   5.596   4.529  0.00  0.00     0.219 A 
ATOM      9  O1  <0> d   1       3.164   6.645   5.143  0.00  0.00    -0.284 OA
ATOM     10  C9  <0> d   1       3.201   4.232   5.053  0.00  0.00     0.128 A 
ATOM     11  C10 <0> d   1       3.475   3.890   6.340  0.00  0.00     0.055 C 
ATOM     12  O4  <0> d   1       3.007   3.375   4.022  0.00  0.00    -0.305 OA
ENDROOT
BRANCH  11  13
ATOM     13  C11 <0> d   1       3.433   2.484   6.750  0.00  0.00     0.000 A 
ATOM     14  C16 <0> d   1       3.363   2.147   8.114  0.00  0.00     0.081 A 
ATOM     15  C15 <0> d   1       3.317   0.816   8.488  0.00  0.00     0.074 A 
ATOM     16  C14 <0> d   1       3.353  -0.177   7.519  0.00  0.00     0.070 A 
ATOM     17  C13 <0> d   1       3.427   0.159   6.170  0.00  0.00     0.038 A 
ATOM     18  C12 <0> d   1       3.467   1.468   5.785  0.00  0.00     0.017 A 
BRANCH  14  19
ATOM     19  O2  <0> d   1       3.334   3.122   9.057  0.00  0.00    -0.355 OA
ATOM     20  C17 <0> d   1       3.263   2.703  10.422  0.00  0.00     0.210 C 
ENDBRANCH  14  19
BRANCH  16  21
ATOM     21  O3  <0> d   1       3.314  -1.483   7.888  0.00  0.00    -0.356 OA
ATOM     22  C18 <0> d   1       3.354  -2.454   6.841  0.00  0.00     0.210 C 
ENDBRANCH  16  21
ENDBRANCH  11  13
BRANCH   5  23
ATOM     23  C19 <0> d   1       2.474   2.080   1.312  0.00  0.00     0.279 C 
BRANCH  23  24
ATOM     24  N1  <0> d   1       1.111   1.568   1.505  0.00  0.00    -0.064 N 
ATOM     25  C23 <0> d   1       1.092   0.098   1.482  0.00  0.00     0.265 C 
ATOM     26  C22 <0> d   1      -0.329  -0.395   1.764  0.00  0.00     0.299 C 
ATOM     27  N2  <0> d   1      -1.246   0.156   0.757  0.00  0.00     0.087 N 
ATOM     28  C21 <0> d   1      -1.227   1.625   0.780  0.00  0.00     0.299 C 
ATOM     29  C24 <0> d   1      -2.609  -0.356   0.949  0.00  0.00     0.310 C 
ATOM     30  C20 <0> d   1       0.194   2.119   0.497  0.00  0.00     0.265 C 
ATOM     31  H29 <0> d   1       0.764   1.896   2.496  0.00  0.00     0.280 HD
ENDBRANCH  23  24
ENDBRANCH   5  23
BRANCH   4  32
ATOM     32  O5  <0> d   1       2.026   3.997  -0.699  0.00  0.00    -0.360 OA
ATOM     33  H28 <0> d   1       2.014   2.914  -0.893  0.00  0.00     0.217 HD
ENDBRANCH   4  32
TORSDOF 6
