REMARK  7 active torsions:
REMARK  status: ('A' for Active; 'I' for Inactive)
REMARK    1  A    between atoms: C4_4  and  C7_7 
REMARK    2  A    between atoms: C13_14  and  C17_22 
REMARK    3  A    between atoms: C15_17  and  C16_18 
REMARK    4  A    between atoms: C17_22  and  N1_23 
REMARK    5  A    between atoms: N2_26  and  C22_29 
REMARK    6  A    between atoms: C22_29  and  C23_30 
REMARK    7  A    between atoms: C23_30  and  O3_31 
ROOT
ATOM      1  C7  <0> d   1      -2.407   4.378  -0.064  0.00  0.00     0.064 A 
ATOM      2  C8  <0> d   1      -1.104   4.898  -0.511  0.00  0.00     0.198 A 
ATOM      3  O1  <0> d   1      -1.005   5.972  -1.079  0.00  0.00    -0.286 OA
ATOM      4  C9  <0> d   1       0.076   4.057  -0.238  0.00  0.00     0.050 A 
ATOM      5  C10 <0> d   1       1.356   4.459  -0.621  0.00  0.00     0.021 A 
ATOM      6  C11 <0> d   1       2.427   3.656  -0.353  0.00  0.00     0.041 A 
ATOM      7  C12 <0> d   1       2.248   2.439   0.301  0.00  0.00     0.118 A 
ATOM      8  C13 <0> d   1       0.984   2.026   0.687  0.00  0.00     0.039 A 
ATOM      9  C14 <0> d   1      -0.117   2.828   0.417  0.00  0.00     0.101 A 
ATOM     10  O2  <0> d   1      -1.354   2.444   0.791  0.00  0.00    -0.303 OA
ATOM     11  C15 <0> d   1      -2.449   3.174   0.564  0.00  0.00     0.174 A 
ATOM     12  O4  <0> d   1       3.321   1.651   0.562  0.00  0.00    -0.191 OA
ENDROOT
BRANCH   8  13
ATOM     13  C17 <0> d   1       0.803   0.707   1.393  0.00  0.00     0.279 C 
BRANCH  13  14
ATOM     14  N1  <0> d   1       0.911   0.909   2.844  0.00  0.00    -0.064 N 
ATOM     15  C21 <0> d   1       0.508  -0.300   3.575  0.00  0.00     0.265 C 
ATOM     16  C20 <0> d   1       0.558  -0.023   5.080  0.00  0.00     0.300 C 
ATOM     17  N2  <0> d   1       1.919   0.387   5.455  0.00  0.00     0.093 N 
ATOM     18  C19 <0> d   1       2.322   1.595   4.723  0.00  0.00     0.300 C 
ATOM     19  C18 <0> d   1       2.272   1.319   3.218  0.00  0.00     0.265 C 
ATOM     20  H23 <0> d   1       0.223   1.721   3.123  0.00  0.00     0.280 HD
BRANCH  17  21
ATOM     21  C22 <0> d   1       2.027   0.589   6.905  0.00  0.00     0.298 C 
BRANCH  21  22
ATOM     22  C23 <0> d   1       2.086  -0.770   7.607  0.00  0.00     0.194 C 
BRANCH  22  23
ATOM     23  O3  <0> d   1       3.294  -1.441   7.245  0.00  0.00    -0.399 OA
ATOM     24  H22 <0> d   1       3.513  -2.439   7.654  0.00  0.00     0.209 HD
ENDBRANCH  22  23
ENDBRANCH  21  22
ENDBRANCH  17  21
ENDBRANCH  13  14
ENDBRANCH   8  13
BRANCH  11  25
ATOM     25  C16 <0> d   1      -3.782   2.641   1.022  0.00  0.00     0.440 C 
ATOM     26  F1  <0> d   1      -4.571   2.338  -0.093  0.00  0.00    -0.164 F 
ATOM     27  F2  <0> d   1      -3.585   1.484   1.782  0.00  0.00    -0.164 F 
ATOM     28  F3  <0> d   1      -4.427   3.607   1.801  0.00  0.00    -0.164 F 
ENDBRANCH  11  25
BRANCH   1  29
ATOM     29  C4  <0> d   1      -3.650   5.153  -0.295  0.00  0.00    -0.019 A 
ATOM     30  C3  <0> d   1      -3.896   6.314   0.436  0.00  0.00     0.012 A 
ATOM     31  C2  <0> d   1      -5.055   7.031   0.217  0.00  0.00     0.001 A 
ATOM     32  C1  <0> d   1      -5.971   6.600  -0.725  0.00  0.00     0.000 A 
ATOM     33  C6  <0> d   1      -5.732   5.448  -1.453  0.00  0.00     0.001 A 
ATOM     34  C5  <0> d   1      -4.574   4.726  -1.247  0.00  0.00     0.012 A 
ENDBRANCH   1  29
TORSDOF 7
