REMARK  8 active torsions:
REMARK  status: ('A' for Active; 'I' for Inactive)
REMARK    1  A    between atoms: O1_2  and  C2_3 
REMARK    2  A    between atoms: C5_6  and  C8_9 
REMARK    3  A    between atoms: C10_14  and  C11_15 
REMARK    4  A    between atoms: C14_18  and  O3_22 
REMARK    5  A    between atoms: O3_22  and  C17_23 
REMARK    6  A    between atoms: C17_23  and  C18_24 
REMARK    7  A    between atoms: C18_24  and  N3_25 
REMARK    8  A    between atoms: N4_28  and  C23_31 
ROOT
ATOM      1  C11 <0> d   1       3.734  -3.613  -2.593  0.00  0.00     0.032 A 
ATOM      2  C12 <0> d   1       3.187  -3.371  -1.334  0.00  0.00     0.019 A 
ATOM      3  C13 <0> d   1       3.768  -3.923  -0.212  0.00  0.00     0.038 A 
ATOM      4  C14 <0> d   1       4.899  -4.721  -0.333  0.00  0.00     0.071 A 
ATOM      5  C15 <0> d   1       5.449  -4.968  -1.581  0.00  0.00     0.077 A 
ATOM      6  C16 <0> d   1       4.868  -4.422  -2.714  0.00  0.00     0.122 A 
ATOM      7  O2  <0> d   1       5.403  -4.667  -3.939  0.00  0.00    -0.191 OA
ENDROOT
BRANCH   4   8
ATOM      8  O3  <0> d   1       5.467  -5.262   0.777  0.00  0.00    -0.349 OA
BRANCH   8   9
ATOM      9  C17 <0> d   1       6.628  -6.073   0.582  0.00  0.00     0.203 C 
BRANCH   9  10
ATOM     10  C18 <0> d   1       7.122  -6.590   1.934  0.00  0.00     0.261 C 
BRANCH  10  11
ATOM     11  N3  <0> d   1       6.100  -7.461   2.529  0.00  0.00    -0.066 N 
ATOM     12  C22 <0> d   1       5.949  -8.667   1.706  0.00  0.00     0.254 C 
ATOM     13  C21 <0> d   1       4.804  -9.522   2.260  0.00  0.00     0.150 C 
ATOM     14  N4  <0> d   1       5.067  -9.787   3.683  0.00  0.00    -0.375 N 
ATOM     15  C20 <0> d   1       5.391  -8.646   4.552  0.00  0.00     0.150 C 
ATOM     16  C19 <0> d   1       6.508  -7.832   3.890  0.00  0.00     0.254 C 
ATOM     17  H29 <0> d   1       5.221  -6.968   2.567  0.00  0.00     0.280 HD
BRANCH  14  18
ATOM     18  C23 <0> d   1       5.011 -11.088   4.194  0.00  0.00     0.069 A 
ATOM     19  C28 <0> d   1       6.153 -11.882   4.205  0.00  0.00     0.142 A 
ATOM     20  C27 <0> d   1       6.094 -13.165   4.717  0.00  0.00     0.044 A 
ATOM     21  F1  <0> d   1       7.318 -11.399   3.722  0.00  0.00    -0.204 F 
ATOM     22  C26 <0> d   1       4.900 -13.662   5.206  0.00  0.00     0.003 A 
ATOM     23  C25 <0> d   1       3.762 -12.876   5.191  0.00  0.00     0.002 A 
ATOM     24  C24 <0> d   1       3.815 -11.591   4.687  0.00  0.00     0.032 A 
ENDBRANCH  14  18
ENDBRANCH  10  11
ENDBRANCH   9  10
ENDBRANCH   8   9
ENDBRANCH   4   8
BRANCH   1  25
ATOM     25  C10 <0> d   1       3.111  -3.021  -3.801  0.00  0.00     0.102 A 
ATOM     26  C8  <0> d   1       1.728  -3.029  -4.117  0.00  0.00     0.022 A 
ATOM     27  C9  <0> d   1       1.576  -2.378  -5.304  0.00  0.00     0.124 A 
ATOM     28  N1  <0> d   1       2.798  -1.985  -5.720  0.00  0.00    -0.288 N 
ATOM     29  H1  <0> d   1       2.990  -1.500  -6.537  0.00  0.00     0.188 HD
ATOM     30  N2  <0> d   1       3.742  -2.398  -4.772  0.00  0.00    -0.174 NA
BRANCH  26  31
ATOM     31  C5  <0> d   1       0.645  -3.630  -3.300  0.00  0.00    -0.022 A 
ATOM     32  C4  <0> d   1      -0.436  -2.850  -2.892  0.00  0.00     0.015 A 
ATOM     33  C3  <0> d   1      -1.442  -3.412  -2.133  0.00  0.00     0.037 A 
ATOM     34  C2  <0> d   1      -1.378  -4.752  -1.777  0.00  0.00     0.068 A 
ATOM     35  C7  <0> d   1      -0.300  -5.529  -2.177  0.00  0.00     0.037 A 
ATOM     36  C6  <0> d   1       0.706  -4.974  -2.940  0.00  0.00     0.015 A 
BRANCH  34  37
ATOM     37  O1  <0> d   1      -2.371  -5.303  -1.029  0.00  0.00    -0.356 OA
ATOM     38  C1  <0> d   1      -3.451  -4.446  -0.652  0.00  0.00     0.210 C 
ENDBRANCH  34  37
ENDBRANCH  26  31
ENDBRANCH   1  25
TORSDOF 8
