REMARK  7 active torsions:
REMARK  status: ('A' for Active; 'I' for Inactive)
REMARK    1  A    between atoms: C4_4  and  O6_33 
REMARK    2  A    between atoms: C5_5  and  C20_25 
REMARK    3  A    between atoms: C10_11  and  C11_12 
REMARK    4  A    between atoms: C13_14  and  O4_22 
REMARK    5  A    between atoms: C14_15  and  O3_20 
REMARK    6  A    between atoms: C15_16  and  O2_18 
REMARK    7  A    between atoms: C20_25  and  N1_26 
ROOT
ATOM      1  C1  <0> d   1       0.515   1.452  -0.003  0.00  0.00     0.049 C 
ATOM      2  C2  <0> d   1       0.718  -0.041   0.034  0.00  0.00    -0.042 A 
ATOM      3  C3  <0> d   1       1.033  -0.717  -1.111  0.00  0.00     0.045 A 
ATOM      4  C4  <0> d   1       1.220  -2.096  -1.080  0.00  0.00     0.077 A 
ATOM      5  C5  <0> d   1       1.091  -2.798   0.108  0.00  0.00     0.038 A 
ATOM      6  C6  <0> d   1       0.771  -2.126   1.281  0.00  0.00     0.102 A 
ATOM      7  C7  <0> d   1       0.590  -0.734   1.238  0.00  0.00     0.057 A 
ATOM      8  C8  <0> d   1       0.273  -0.313   2.615  0.00  0.00     0.219 A 
ATOM      9  O1  <0> d   1       0.040   0.814   3.015  0.00  0.00    -0.284 OA
ATOM     10  C9  <0> d   1       0.302  -1.558   3.396  0.00  0.00     0.128 A 
ATOM     11  C10 <0> d   1       0.068  -1.674   4.728  0.00  0.00     0.053 C 
ATOM     12  O5  <0> d   1       0.592  -2.569   2.544  0.00  0.00    -0.305 OA
ENDROOT
BRANCH  11  13
ATOM     13  C11 <0> d   1      -0.019  -3.003   5.345  0.00  0.00    -0.028 A 
ATOM     14  C16 <0> d   1      -0.011  -4.151   4.543  0.00  0.00     0.051 A 
ATOM     15  C15 <0> d   1      -0.088  -5.400   5.128  0.00  0.00     0.105 A 
ATOM     16  C14 <0> d   1      -0.185  -5.519   6.513  0.00  0.00     0.135 A 
ATOM     17  C13 <0> d   1      -0.199  -4.379   7.314  0.00  0.00     0.105 A 
ATOM     18  C12 <0> d   1      -0.116  -3.126   6.737  0.00  0.00     0.051 A 
BRANCH  15  19
ATOM     19  O2  <0> d   1      -0.074  -6.516   4.351  0.00  0.00    -0.353 OA
ATOM     20  C17 <0> d   1       0.027  -6.322   2.939  0.00  0.00     0.210 C 
ENDBRANCH  15  19
BRANCH  16  21
ATOM     21  O3  <0> d   1      -0.265  -6.749   7.084  0.00  0.00    -0.351 OA
ATOM     22  C18 <0> d   1      -1.573  -7.293   7.272  0.00  0.00     0.210 C 
ENDBRANCH  16  21
BRANCH  17  23
ATOM     23  O4  <0> d   1      -0.293  -4.500   8.665  0.00  0.00    -0.353 OA
ATOM     24  C19 <0> d   1      -0.301  -3.290   9.425  0.00  0.00     0.210 C 
ENDBRANCH  17  23
ENDBRANCH  11  13
BRANCH   5  25
ATOM     25  C20 <0> d   1       1.297  -4.290   0.127  0.00  0.00     0.317 C 
BRANCH  25  26
ATOM     26  N1  <0> d   1       2.711  -4.587   0.391  0.00  0.00     0.096 N 
ATOM     27  C24 <0> d   1       2.909  -6.019   0.652  0.00  0.00     0.303 C 
ATOM     28  C23 <0> d   1       4.378  -6.273   1.000  0.00  0.00     0.302 C 
ATOM     29  N2  <0> d   1       5.228  -5.820  -0.110  0.00  0.00     0.087 N 
ATOM     30  C22 <0> d   1       5.029  -4.388  -0.371  0.00  0.00     0.302 C 
ATOM     31  C25 <0> d   1       6.642  -6.117   0.154  0.00  0.00     0.310 C 
ATOM     32  C21 <0> d   1       3.561  -4.134  -0.719  0.00  0.00     0.303 C 
ENDBRANCH  25  26
ENDBRANCH   5  25
BRANCH   4  33
ATOM     33  O6  <0> d   1       1.532  -2.758  -2.223  0.00  0.00    -0.360 OA
ATOM     34  H30 <0> d   1       2.482  -2.829  -2.389  0.00  0.00     0.217 HD
ENDBRANCH   4  33
TORSDOF 7
