REMARK  8 active torsions:
REMARK  status: ('A' for Active; 'I' for Inactive)
REMARK    1  A    between atoms: C2_2  and  N1_3 
REMARK    2  A    between atoms: N2_6  and  C7_9 
REMARK    3  A    between atoms: C7_9  and  C8_10 
REMARK    4  A    between atoms: C14_17  and  C25_31 
REMARK    5  A    between atoms: C15_18  and  O3_21 
REMARK    6  A    between atoms: O3_21  and  C17_22 
REMARK    7  A    between atoms: C22_27  and  O4_28 
REMARK    8  A    between atoms: O4_28  and  C23_29 
ROOT
ATOM      1  C8  <0> d   1      -0.018   1.503   0.010  0.00  0.00     0.039 A 
ATOM      2  C9  <0> d   1       1.170   2.214   0.003  0.00  0.00     0.118 A 
ATOM      3  C10 <0> d   1       1.162   3.607   0.011  0.00  0.00     0.041 A 
ATOM      4  C11 <0> d   1      -0.020   4.292   0.026  0.00  0.00     0.021 A 
ATOM      5  C12 <0> d   1      -1.226   3.589   0.033  0.00  0.00     0.052 A 
ATOM      6  C13 <0> d   1      -1.228   2.183   0.020  0.00  0.00     0.101 A 
ATOM      7  O1  <0> d   1      -2.399   1.515   0.021  0.00  0.00    -0.301 OA
ATOM      8  C14 <0> d   1      -3.583   2.142   0.030  0.00  0.00     0.197 A 
ATOM      9  C15 <0> d   1      -3.697   3.485   0.037  0.00  0.00     0.165 A 
ATOM     10  C16 <0> d   1      -2.522   4.290   0.049  0.00  0.00     0.221 A 
ATOM     11  O2  <0> d   1      -2.586   5.507   0.057  0.00  0.00    -0.284 OA
ATOM     12  O5  <0> d   1       2.353   1.548  -0.012  0.00  0.00    -0.191 OA
ENDROOT
BRANCH   1  13
ATOM     13  C7  <0> d   1       0.002  -0.004   0.002  0.00  0.00     0.279 C 
BRANCH  13  14
ATOM     14  N2  <0> d   1       0.022  -0.501   1.384  0.00  0.00    -0.064 N 
ATOM     15  C4  <0> d   1      -0.196  -1.954   1.425  0.00  0.00     0.265 C 
ATOM     16  C3  <0> d   1      -0.248  -2.419   2.882  0.00  0.00     0.300 C 
ATOM     17  N1  <0> d   1       1.009  -2.059   3.553  0.00  0.00     0.091 N 
ATOM     18  C6  <0> d   1       1.227  -0.606   3.513  0.00  0.00     0.300 C 
ATOM     19  C5  <0> d   1       1.279  -0.141   2.055  0.00  0.00     0.265 C 
ATOM     20  H27 <0> d   1      -0.804  -0.018   1.927  0.00  0.00     0.280 HD
BRANCH  17  21
ATOM     21  C2  <0> d   1       1.029  -2.556   4.935  0.00  0.00     0.268 C 
ATOM     22  C1  <0> d   1       2.433  -2.386   5.518  0.00  0.00     0.037 C 
ENDBRANCH  17  21
ENDBRANCH  13  14
ENDBRANCH   1  13
BRANCH   8  23
ATOM     23  C25 <0> d   1      -4.840   1.311   0.030  0.00  0.00     0.442 C 
ATOM     24  F1  <0> d   1      -5.234   1.061  -1.289  0.00  0.00    -0.164 F 
ATOM     25  F2  <0> d   1      -4.596   0.097   0.681  0.00  0.00    -0.164 F 
ATOM     26  F3  <0> d   1      -5.856   2.003   0.698  0.00  0.00    -0.164 F 
ENDBRANCH   8  23
BRANCH   9  27
ATOM     27  O3  <0> d   1      -4.926   4.068   0.046  0.00  0.00    -0.301 OA
BRANCH  27  28
ATOM     28  C17 <0> d   1      -5.498   4.335   1.250  0.00  0.00     0.109 A 
ATOM     29  C22 <0> d   1      -6.755   4.931   1.310  0.00  0.00     0.102 A 
ATOM     30  C21 <0> d   1      -7.333   5.201   2.539  0.00  0.00     0.039 A 
ATOM     31  C20 <0> d   1      -6.662   4.878   3.704  0.00  0.00     0.003 A 
ATOM     32  C19 <0> d   1      -5.414   4.286   3.646  0.00  0.00     0.003 A 
ATOM     33  C18 <0> d   1      -4.833   4.010   2.422  0.00  0.00     0.040 A 
BRANCH  29  34
ATOM     34  O4  <0> d   1      -7.413   5.248   0.163  0.00  0.00    -0.349 OA
BRANCH  34  35
ATOM     35  C23 <0> d   1      -8.699   5.857   0.300  0.00  0.00     0.171 C 
ATOM     36  C24 <0> d   1      -9.281   6.138  -1.087  0.00  0.00     0.034 C 
ENDBRANCH  34  35
ENDBRANCH  29  34
ENDBRANCH  27  28
ENDBRANCH   9  27
TORSDOF 8
