REMARK  7 active torsions:
REMARK  status: ('A' for Active; 'I' for Inactive)
REMARK    1  A    between atoms: C4_4  and  C7_7 
REMARK    2  A    between atoms: C12_12  and  O1_13 
REMARK    3  A    between atoms: C13_14  and  C16_19 
REMARK    4  A    between atoms: C16_19  and  N1_20 
REMARK    5  A    between atoms: N2_23  and  C21_26 
REMARK    6  A    between atoms: C21_26  and  C22_27 
REMARK    7  A    between atoms: C21_26  and  C28_33 
ROOT
ATOM      1  C16 <0> d   1      -0.062   1.031   2.429  0.00  0.00     0.312 C 
ENDROOT
BRANCH   1   2
ATOM      2  C13 <0> d   1      -0.631   1.724   3.640  0.00  0.00    -0.011 A 
ATOM      3  C10 <0> d   1      -1.924   1.320   4.199  0.00  0.00     0.009 A 
ATOM      4  C9  <0> d   1      -2.417   1.995   5.332  0.00  0.00     0.091 A 
ATOM      5  C11 <0> d   1      -2.663   0.281   3.623  0.00  0.00     0.052 A 
ATOM      6  C8  <0> d   1      -3.638   1.625   5.873  0.00  0.00     0.053 A 
ATOM      7  O3  <0> d   1      -1.697   2.997   5.884  0.00  0.00    -0.275 OA
ATOM      8  C7  <0> d   1      -4.369   0.592   5.296  0.00  0.00     0.010 A 
ATOM      9  C12 <0> d   1      -3.877  -0.080   4.167  0.00  0.00     0.077 A 
ATOM     10  C15 <0> d   1      -0.512   3.370   5.376  0.00  0.00     0.288 A 
ATOM     11  C14 <0> d   1       0.043   2.735   4.245  0.00  0.00     0.092 A 
ATOM     12  O2  <0> d   1       0.101   4.279   5.907  0.00  0.00    -0.260 OA
BRANCH   8  13
ATOM     13  C4  <0> d   1      -5.675   0.199   5.877  0.00  0.00    -0.023 A 
ATOM     14  C3  <0> d   1      -6.796   0.076   5.058  0.00  0.00     0.012 A 
ATOM     15  C2  <0> d   1      -8.009  -0.290   5.604  0.00  0.00     0.001 A 
ATOM     16  C1  <0> d   1      -8.114  -0.535   6.961  0.00  0.00     0.000 A 
ATOM     17  C6  <0> d   1      -7.005  -0.414   7.779  0.00  0.00     0.001 A 
ATOM     18  C5  <0> d   1      -5.785  -0.054   7.243  0.00  0.00     0.012 A 
ENDBRANCH   8  13
BRANCH   9  19
ATOM     19  O1  <0> d   1      -4.597  -1.088   3.610  0.00  0.00    -0.360 OA
ATOM     20  H8  <0> d   1      -4.212  -1.615   2.725  0.00  0.00     0.217 HD
ENDBRANCH   9  19
ENDBRANCH   1   2
BRANCH   1  21
ATOM     21  N1  <0> d   1      -0.701   1.560   1.216  0.00  0.00     0.096 N 
ATOM     22  C20 <0> d   1      -0.754   3.029   1.247  0.00  0.00     0.303 C 
ATOM     23  C19 <0> d   1      -1.495   3.536   0.008  0.00  0.00     0.304 C 
ATOM     24  N2  <0> d   1      -0.806   3.062  -1.200  0.00  0.00     0.105 N 
ATOM     25  C18 <0> d   1      -0.754   1.593  -1.231  0.00  0.00     0.304 C 
ATOM     26  C17 <0> d   1      -0.013   1.086   0.008  0.00  0.00     0.303 C 
BRANCH  24  27
ATOM     27  C21 <0> d   1      -1.445   3.591  -2.413  0.00  0.00     0.289 C 
BRANCH  27  28
ATOM     28  C22 <0> d   1      -1.480   5.096  -2.345  0.00  0.00    -0.021 A 
ATOM     29  C27 <0> d   1      -2.598   5.782  -2.785  0.00  0.00     0.010 A 
ATOM     30  C26 <0> d   1      -2.630   7.162  -2.722  0.00  0.00     0.001 A 
ATOM     31  C25 <0> d   1      -1.545   7.857  -2.221  0.00  0.00     0.000 A 
ATOM     32  C24 <0> d   1      -0.428   7.172  -1.782  0.00  0.00     0.001 A 
ATOM     33  C23 <0> d   1      -0.398   5.791  -1.839  0.00  0.00     0.010 A 
ENDBRANCH  27  28
BRANCH  27  34
ATOM     34  C28 <0> d   1      -0.658   3.161  -3.624  0.00  0.00    -0.021 A 
ATOM     35  C33 <0> d   1      -1.317   2.770  -4.774  0.00  0.00     0.010 A 
ATOM     36  C32 <0> d   1      -0.595   2.376  -5.885  0.00  0.00     0.001 A 
ATOM     37  C31 <0> d   1       0.786   2.372  -5.846  0.00  0.00     0.000 A 
ATOM     38  C30 <0> d   1       1.446   2.764  -4.696  0.00  0.00     0.001 A 
ATOM     39  C29 <0> d   1       0.724   3.163  -3.587  0.00  0.00     0.010 A 
ENDBRANCH  27  34
ENDBRANCH  24  27
ENDBRANCH   1  21
TORSDOF 7
