REMARK  7 active torsions:
REMARK  status: ('A' for Active; 'I' for Inactive)
REMARK    1  A    between atoms: C2_2  and  N1_3 
REMARK    2  A    between atoms: N2_6  and  C7_9 
REMARK    3  A    between atoms: C7_9  and  C8_10 
REMARK    4  A    between atoms: C9_11  and  O5_31 
REMARK    5  A    between atoms: C15_18  and  C16_19 
REMARK    6  A    between atoms: C19_22  and  C22_25 
REMARK    7  A    between atoms: C22_25  and  O3_27 
ROOT
ATOM      1  C8  <0> d   1       1.598   3.243  -0.091  0.00  0.00     0.038 A 
ATOM      2  C9  <0> d   1       0.562   4.164  -0.093  0.00  0.00     0.076 A 
ATOM      3  C10 <0> d   1      -0.763   3.739  -0.073  0.00  0.00     0.038 A 
ATOM      4  C11 <0> d   1      -1.056   2.405  -0.045  0.00  0.00     0.021 A 
ATOM      5  C12 <0> d   1      -0.023   1.466  -0.048  0.00  0.00     0.051 A 
ATOM      6  C13 <0> d   1       1.318   1.883  -0.069  0.00  0.00     0.101 A 
ATOM      7  O1  <0> d   1       2.131   0.804  -0.062  0.00  0.00    -0.305 OA
ATOM      8  C14 <0> d   1       1.433  -0.354  -0.038  0.00  0.00     0.127 A 
ATOM      9  C15 <0> d   1       1.954  -1.605  -0.026  0.00  0.00     0.053 C 
ATOM     10  C24 <0> d   1      -0.001  -0.007  -0.027  0.00  0.00     0.218 A 
ATOM     11  O4  <0> d   1      -0.952  -0.768  -0.005  0.00  0.00    -0.284 OA
ENDROOT
BRANCH   9  12
ATOM     12  C16 <0> d   1       3.406  -1.797  -0.151  0.00  0.00    -0.033 A 
ATOM     13  C21 <0> d   1       4.262  -0.688  -0.153  0.00  0.00     0.012 A 
ATOM     14  C20 <0> d   1       5.616  -0.869  -0.270  0.00  0.00     0.018 A 
ATOM     15  C19 <0> d   1       6.143  -2.158  -0.388  0.00  0.00     0.039 A 
ATOM     16  C18 <0> d   1       5.289  -3.265  -0.386  0.00  0.00     0.018 A 
ATOM     17  C17 <0> d   1       3.936  -3.088  -0.264  0.00  0.00     0.012 A 
BRANCH  15  18
ATOM     18  C22 <0> d   1       7.601  -2.351  -0.513  0.00  0.00     0.292 C 
ATOM     19  O2  <0> d   1       8.343  -1.389  -0.515  0.00  0.00    -0.259 OA
BRANCH  18  20
ATOM     20  O3  <0> d   1       8.109  -3.594  -0.626  0.00  0.00    -0.323 OA
ATOM     21  C23 <0> d   1       9.552  -3.708  -0.746  0.00  0.00     0.213 C 
ENDBRANCH  18  20
ENDBRANCH  15  18
ENDBRANCH   9  12
BRANCH   1  22
ATOM     22  C7  <0> d   1       3.028   3.717  -0.113  0.00  0.00     0.317 C 
BRANCH  22  23
ATOM     23  N2  <0> d   1       3.478   3.852  -1.505  0.00  0.00     0.096 N 
ATOM     24  C4  <0> d   1       4.778   4.534  -1.575  0.00  0.00     0.300 C 
ATOM     25  C3  <0> d   1       5.173   4.725  -3.041  0.00  0.00     0.265 C 
ATOM     26  N1  <0> d   1       5.232   3.415  -3.704  0.00  0.00    -0.068 N 
ATOM     27  C6  <0> d   1       3.932   2.733  -3.635  0.00  0.00     0.265 C 
ATOM     28  H27 <0> d   1       5.969   2.796  -3.171  0.00  0.00     0.280 HD
ATOM     29  C5  <0> d   1       3.537   2.542  -2.168  0.00  0.00     0.300 C 
BRANCH  26  30
ATOM     30  C2  <0> d   1       5.681   3.549  -5.096  0.00  0.00     0.230 C 
ATOM     31  C1  <0> d   1       5.494   2.216  -5.824  0.00  0.00     0.034 C 
ENDBRANCH  26  30
ENDBRANCH  22  23
ENDBRANCH   1  22
BRANCH   2  32
ATOM     32  O5  <0> d   1       0.843   5.492  -0.115  0.00  0.00    -0.360 OA
ATOM     33  H26 <0> d   1       0.025   6.227  -0.117  0.00  0.00     0.217 HD
ENDBRANCH   2  32
TORSDOF 7
