REMARK  4 active torsions:
REMARK  status: ('A' for Active; 'I' for Inactive)
REMARK    1  A    between atoms: C9_10  and  C12_15 
REMARK    2  A    between atoms: C12_15  and  N1_16 
REMARK    3  A    between atoms: N2_19  and  C17_22 
REMARK    4  A    between atoms: C17_22  and  C18_23 
ROOT
ATOM      1  N1  <0> d   1       7.630  -2.728   0.502  0.00  0.00     0.096 N 
ATOM      2  C13 <0> d   1       7.910  -1.370   0.987  0.00  0.00     0.303 C 
ATOM      3  C14 <0> d   1       7.057  -1.087   2.226  0.00  0.00     0.303 C 
ATOM      4  N2  <0> d   1       5.636  -1.238   1.884  0.00  0.00     0.096 N 
ATOM      5  C15 <0> d   1       5.355  -2.597   1.399  0.00  0.00     0.303 C 
ATOM      6  C16 <0> d   1       6.208  -2.879   0.160  0.00  0.00     0.303 C 
ENDROOT
BRANCH   1   7
ATOM      7  C12 <0> d   1       8.486  -3.066  -0.643  0.00  0.00     0.312 C 
BRANCH   7   8
ATOM      8  C9  <0> d   1       8.098  -4.420  -1.178  0.00  0.00    -0.011 A 
ATOM      9  C5  <0> d   1       8.528  -5.648  -0.504  0.00  0.00     0.014 A 
ATOM     10  C4  <0> d   1       8.139  -6.891  -1.035  0.00  0.00     0.091 A 
ATOM     11  C6  <0> d   1       9.310  -5.598   0.654  0.00  0.00    -0.026 A 
ATOM     12  C3  <0> d   1       8.538  -8.060  -0.400  0.00  0.00     0.046 A 
ATOM     13  O2  <0> d   1       7.388  -6.936  -2.156  0.00  0.00    -0.275 OA
ATOM     14  C2  <0> d   1       9.318  -7.996   0.735  0.00  0.00    -0.037 A 
ATOM     15  C1  <0> d   1       9.751  -9.269   1.415  0.00  0.00     0.050 C 
ATOM     16  C7  <0> d   1       9.699  -6.770   1.265  0.00  0.00     0.046 A 
ATOM     17 Cl1  <0> d   1      10.670  -6.715   2.703  0.00  0.00    -0.083 Cl
ATOM     18  C11 <0> d   1       6.995  -5.816  -2.783  0.00  0.00     0.288 A 
ATOM     19  C10 <0> d   1       7.345  -4.536  -2.301  0.00  0.00     0.092 A 
ATOM     20  O1  <0> d   1       6.319  -5.907  -3.791  0.00  0.00    -0.260 OA
ATOM     21  C8  <0> d   1       9.726  -4.269   1.231  0.00  0.00     0.051 C 
ENDBRANCH   7   8
ENDBRANCH   1   7
BRANCH   4  22
ATOM     22  C17 <0> d   1       4.780  -0.901   3.029  0.00  0.00     0.311 C 
BRANCH  22  23
ATOM     23  C18 <0> d   1       3.344  -0.828   2.579  0.00  0.00    -0.027 A 
ATOM     24  C23 <0> d   1       2.821   0.371   2.131  0.00  0.00     0.048 A 
ATOM     25  C22 <0> d   1       1.501   0.441   1.715  0.00  0.00     0.105 A 
ATOM     26  C21 <0> d   1       0.703  -0.700   1.751  0.00  0.00     0.105 A 
ATOM     27  O3  <0> d   1       0.756   1.480   1.238  0.00  0.00    -0.323 OA
ATOM     28  C20 <0> d   1       1.233  -1.898   2.202  0.00  0.00     0.040 A 
ATOM     29  O4  <0> d   1      -0.542  -0.375   1.296  0.00  0.00    -0.323 OA
ATOM     30  C19 <0> d   1       2.551  -1.960   2.615  0.00  0.00     0.012 A 
ATOM     31  C24 <0> d   1      -0.615   1.061   1.368  0.00  0.00     0.352 C 
ENDBRANCH  22  23
ENDBRANCH   4  22
TORSDOF 4
