REMARK  5 active torsions:
REMARK  status: ('A' for Active; 'I' for Inactive)
REMARK    1  A    between atoms: N1_10  and  C11_12 
REMARK    2  A    between atoms: C11_12  and  C12_13 
REMARK    3  A    between atoms: C13_14  and  O3_34 
REMARK    4  A    between atoms: C19_21  and  C21_24 
REMARK    5  A    between atoms: C20_22  and  O2_23 
ROOT
ATOM      1  C12 <0> d   1       1.356  -2.430  -3.408  0.00  0.00     0.036 A 
ATOM      2  C13 <0> d   1       0.799  -2.592  -4.668  0.00  0.00     0.076 A 
ATOM      3  C14 <0> d   1       1.512  -2.228  -5.807  0.00  0.00     0.038 A 
ATOM      4  C15 <0> d   1       2.771  -1.707  -5.699  0.00  0.00     0.020 A 
ATOM      5  C16 <0> d   1       3.347  -1.537  -4.436  0.00  0.00     0.033 A 
ATOM      6  C17 <0> d   1       2.627  -1.896  -3.282  0.00  0.00     0.101 A 
ATOM      7  O1  <0> d   1       3.182  -1.719  -2.057  0.00  0.00    -0.292 OA
ATOM      8  C18 <0> d   1       4.537  -1.753  -1.980  0.00  0.00     0.158 C 
ATOM      9  C19 <0> d   1       5.308  -1.083  -3.046  0.00  0.00     0.085 C 
ATOM     10  C20 <0> d   1       4.701  -0.983  -4.297  0.00  0.00     0.096 C 
ATOM     11  N3  <0> d   1       5.142  -2.362  -0.992  0.00  0.00    -0.379 N 
ATOM     12  H27 <0> d   1       4.620  -2.797  -0.300  0.00  0.00     0.158 HD
ATOM     13  H28 <0> d   1       6.111  -2.377  -0.952  0.00  0.00     0.158 HD
ENDROOT
BRANCH   1  14
ATOM     14  C11 <0> d   1       0.577  -2.827  -2.181  0.00  0.00     0.279 C 
BRANCH  14  15
ATOM     15  N1  <0> d   1      -0.211  -1.692  -1.717  0.00  0.00    -0.062 N 
ATOM     16  C4  <0> d   1      -1.100  -2.018  -0.584  0.00  0.00     0.190 C 
ATOM     17  C3  <0> d   1      -1.426  -0.615   0.003  0.00  0.00     0.044 C 
ATOM     18  C5  <0> d   1      -0.396  -2.818   0.494  0.00  0.00     0.042 C 
ATOM     19  C2  <0> d   1       0.002  -0.004   0.002  0.00  0.00    -0.017 C 
ATOM     20  C1  <0> d   1      -0.019   1.532   0.011  0.00  0.00     0.017 C 
ATOM     21  C7  <0> d   1       0.727  -0.591   1.214  0.00  0.00     0.019 C 
ATOM     22  C10 <0> d   1       0.649  -0.577  -1.280  0.00  0.00     0.244 C 
ATOM     23  C6  <0> d   1       0.654  -2.101   1.313  0.00  0.00    -0.045 C 
ATOM     24  C8  <0> d   1       2.041  -2.692   0.990  0.00  0.00     0.015 C 
ATOM     25  C9  <0> d   1       0.383  -2.444   2.801  0.00  0.00     0.015 C 
ATOM     26  H30 <0> d   1      -0.788  -1.358  -2.491  0.00  0.00     0.280 HD
ENDBRANCH  14  15
ENDBRANCH   1  14
BRANCH   2  27
ATOM     27  O3  <0> d   1      -0.449  -3.110  -4.792  0.00  0.00    -0.360 OA
ATOM     28  H29 <0> d   1      -1.153  -2.447  -4.781  0.00  0.00     0.217 HD
ENDBRANCH   2  27
BRANCH  10  29
ATOM     29  O2  <0> d   1       5.327  -0.385  -5.335  0.00  0.00    -0.359 OA
ATOM     30  H31 <0> d   1       6.213  -0.059  -5.126  0.00  0.00     0.217 HD
ENDBRANCH  10  29
BRANCH   9  31
ATOM     31  C21 <0> d   1       6.660  -0.556  -2.801  0.00  0.00     0.116 A 
ATOM     32  S1  <0> d   1       7.621  -0.589  -1.295  0.00  0.00    -0.067 SA
ATOM     33  C27 <0> d   1       9.058   0.242  -1.929  0.00  0.00     0.035 A 
ATOM     34  C22 <0> d   1       8.692   0.498  -3.271  0.00  0.00     0.075 A 
ATOM     35  C26 <0> d   1      10.270   0.619  -1.407  0.00  0.00     0.021 A 
ATOM     36  N2  <0> d   1       7.468   0.067  -3.636  0.00  0.00    -0.239 NA
ATOM     37  C23 <0> d   1       9.651   1.174  -4.062  0.00  0.00     0.033 A 
ATOM     38  C24 <0> d   1      10.858   1.546  -3.531  0.00  0.00     0.002 A 
ATOM     39  C25 <0> d   1      11.184   1.278  -2.209  0.00  0.00     0.002 A 
ENDBRANCH   9  31
TORSDOF 5
