REMARK  8 active torsions:
REMARK  status: ('A' for Active; 'I' for Inactive)
REMARK    1  A    between atoms: C6_6  and  C7_7 
REMARK    2  A    between atoms: C9_10  and  C10_12 
REMARK    3  A    between atoms: C15_17  and  O4_33 
REMARK    4  A    between atoms: C16_18  and  C19_23 
REMARK    5  A    between atoms: C19_23  and  N2_24 
REMARK    6  A    between atoms: N3_27  and  C24_30 
REMARK    7  A    between atoms: C24_30  and  C25_31 
REMARK    8  A    between atoms: C25_31  and  O3_32 
ROOT
ATOM      1  C10 <0> d   1      -4.955  -0.266   0.039  0.00  0.00     0.076 C 
ATOM      2  C11 <0> d   1      -6.048  -1.118   0.052  0.00  0.00     0.034 C 
ATOM      3  C12 <0> d   1      -7.344  -0.541   0.030  0.00  0.00    -0.000 A 
ATOM      4  C13 <0> d   1      -8.480  -1.337   0.243  0.00  0.00     0.017 A 
ATOM      5  C14 <0> d   1      -9.717  -0.764   0.260  0.00  0.00     0.038 A 
ATOM      6  C15 <0> d   1      -9.865   0.607   0.061  0.00  0.00     0.076 A 
ATOM      7  C16 <0> d   1      -8.757   1.407  -0.171  0.00  0.00     0.038 A 
ATOM      8  C17 <0> d   1      -7.493   0.840  -0.199  0.00  0.00     0.100 A 
ATOM      9  O1  <0> d   1      -6.406   1.604  -0.467  0.00  0.00    -0.273 OA
ATOM     10  C18 <0> d   1      -5.223   1.183   0.043  0.00  0.00     0.301 C 
ATOM     11  O2  <0> d   1      -4.408   1.972   0.485  0.00  0.00    -0.259 OA
ENDROOT
BRANCH   1  12
ATOM     12  C9  <0> d   1      -3.576  -0.790   0.028  0.00  0.00     0.114 A 
ATOM     13  S1  <0> d   1      -3.010  -2.486   0.021  0.00  0.00    -0.079 SA
ATOM     14  C8  <0> d   1      -1.257  -2.136   0.008  0.00  0.00     0.084 A 
ATOM     15  C7  <0> d   1      -1.271  -0.766   0.011  0.00  0.00     0.075 A 
ATOM     16  N1  <0> d   1      -2.428  -0.130   0.026  0.00  0.00    -0.239 NA
BRANCH  15  17
ATOM     17  C6  <0> d   1       0.002  -0.004   0.002  0.00  0.00    -0.007 A 
ATOM     18  C1  <0> d   1      -0.017   1.389   0.010  0.00  0.00     0.015 A 
ATOM     19  C2  <0> d   1       1.170   2.093   0.002  0.00  0.00     0.020 A 
ATOM     20  C3  <0> d   1       2.378   1.418  -0.013  0.00  0.00     0.011 A 
ATOM     21  C4  <0> d   1       2.402   0.034  -0.022  0.00  0.00     0.020 A 
ATOM     22 Br1  <0> d   1       4.001   2.389  -0.024  0.00  0.00    -0.051 Br
ATOM     23  C5  <0> d   1       1.221  -0.680  -0.014  0.00  0.00     0.015 A 
ENDBRANCH  15  17
ENDBRANCH   1  12
BRANCH   7  24
ATOM     24  C19 <0> d   1      -8.926   2.888  -0.391  0.00  0.00     0.317 C 
BRANCH  24  25
ATOM     25  N2  <0> d   1      -8.854   3.586   0.900  0.00  0.00     0.096 N 
ATOM     26  C23 <0> d   1      -8.777   5.041   0.708  0.00  0.00     0.303 C 
ATOM     27  C22 <0> d   1      -8.622   5.725   2.069  0.00  0.00     0.302 C 
ATOM     28  N3  <0> d   1      -9.762   5.369   2.925  0.00  0.00     0.093 N 
ATOM     29  C21 <0> d   1      -9.839   3.914   3.117  0.00  0.00     0.302 C 
ATOM     30  C20 <0> d   1      -9.993   3.230   1.756  0.00  0.00     0.303 C 
BRANCH  28  31
ATOM     31  C24 <0> d   1      -9.689   6.067   4.215  0.00  0.00     0.298 C 
BRANCH  31  32
ATOM     32  C25 <0> d   1      -9.861   7.571   3.992  0.00  0.00     0.194 C 
BRANCH  32  33
ATOM     33  O3  <0> d   1     -11.175   7.831   3.495  0.00  0.00    -0.399 OA
ATOM     34  H23 <0> d   1     -11.355   8.767   3.330  0.00  0.00     0.209 HD
ENDBRANCH  32  33
ENDBRANCH  31  32
ENDBRANCH  28  31
ENDBRANCH  24  25
ENDBRANCH   7  24
BRANCH   6  35
ATOM     35  O4  <0> d   1     -11.103   1.163   0.093  0.00  0.00    -0.360 OA
ATOM     36  H24 <0> d   1     -11.378   1.460   0.971  0.00  0.00     0.217 HD
ENDBRANCH   6  35
TORSDOF 8
