REMARK  3 active torsions:
REMARK  status: ('A' for Active; 'I' for Inactive)
REMARK    1  A    between atoms: C2_2  and  N1_3 
REMARK    2  A    between atoms: C4_5  and  C12_14 
REMARK    3  A    between atoms: C9_10  and  O1_12 
ROOT
ATOM      1  N1  <0> d   1      -4.628   4.580   0.045  0.00  0.00    -0.356 N 
ATOM      2  C3  <0> d   1      -3.400   4.007   0.037  0.00  0.00     0.103 A 
ATOM      3  C4  <0> d   1      -3.532   2.635   0.030  0.00  0.00    -0.005 A 
ATOM      4  C5  <0> d   1      -4.982   2.360   0.028  0.00  0.00     0.005 A 
ATOM      5  C6  <0> d   1      -5.614   3.613   0.044  0.00  0.00     0.045 A 
ATOM      6  C7  <0> d   1      -7.004   3.677   0.050  0.00  0.00     0.033 A 
ATOM      7  C8  <0> d   1      -7.748   2.517   0.046  0.00  0.00     0.039 A 
ATOM      8  C9  <0> d   1      -7.122   1.275   0.036  0.00  0.00     0.069 A 
ATOM      9  C10 <0> d   1      -5.741   1.193   0.030  0.00  0.00     0.051 A 
ENDROOT
BRANCH   3  10
ATOM     10  C12 <0> d   1      -2.453   1.650   0.020  0.00  0.00     0.055 C 
ATOM     11  C13 <0> d   1      -1.154   2.063   0.018  0.00  0.00     0.128 A 
ATOM     12  O3  <0> d   1      -0.733   3.350   0.027  0.00  0.00    -0.305 OA
ATOM     13  C14 <0> d   1      -0.015   1.216   0.009  0.00  0.00     0.218 A 
ATOM     14  C20 <0> d   1       0.615   3.428   0.015  0.00  0.00     0.099 A 
ATOM     15  C15 <0> d   1       1.144   2.127   0.003  0.00  0.00     0.051 A 
ATOM     16  C19 <0> d   1       1.486   4.510   0.013  0.00  0.00     0.009 A 
ATOM     17  C16 <0> d   1       2.524   1.926  -0.011  0.00  0.00     0.021 A 
ATOM     18  C17 <0> d   1       3.368   3.000  -0.013  0.00  0.00     0.041 A 
ATOM     19  C18 <0> d   1       2.854   4.295  -0.001  0.00  0.00     0.116 A 
ATOM     20  O4  <0> d   1       3.702   5.355  -0.003  0.00  0.00    -0.192 OA
ATOM     21  C21 <0> d   1       0.943   5.915   0.026  0.00  0.00     0.054 C 
ATOM     22  O2  <0> d   1       0.002  -0.004   0.002  0.00  0.00    -0.284 OA
ENDBRANCH   3  10
BRANCH   1  23
ATOM     23  C2  <0> d   1      -4.875   6.024   0.054  0.00  0.00     0.124 C 
ATOM     24  C1  <0> d   1      -5.080   6.498   1.494  0.00  0.00     0.027 C 
ENDBRANCH   1  23
BRANCH   8  25
ATOM     25  O1  <0> d   1      -7.869   0.139   0.032  0.00  0.00    -0.356 OA
ATOM     26  C11 <0> d   1      -9.289   0.297   0.037  0.00  0.00     0.210 C 
ENDBRANCH   8  25
TORSDOF 3
