REMARK  6 active torsions:
REMARK  status: ('A' for Active; 'I' for Inactive)
REMARK    1  A    between atoms: C5_5  and  C20_25 
REMARK    2  A    between atoms: C10_11  and  C11_12 
REMARK    3  A    between atoms: C14_15  and  O4_22 
REMARK    4  A    between atoms: C15_16  and  O3_20 
REMARK    5  A    between atoms: C16_17  and  O2_18 
REMARK    6  A    between atoms: C20_25  and  N1_26 
ROOT
ATOM      1  C1  <0> d   1      -1.698  -7.019   0.522  0.00  0.00     0.049 C 
ATOM      2  C2  <0> d   1      -2.347  -5.662   0.442  0.00  0.00    -0.042 A 
ATOM      3  C3  <0> d   1      -3.708  -5.550   0.491  0.00  0.00     0.048 A 
ATOM      4  C4  <0> d   1      -4.310  -4.297   0.418  0.00  0.00     0.118 A 
ATOM      5  C5  <0> d   1      -3.541  -3.152   0.293  0.00  0.00     0.041 A 
ATOM      6  C6  <0> d   1      -2.156  -3.248   0.241  0.00  0.00     0.102 A 
ATOM      7  C7  <0> d   1      -1.560  -4.517   0.316  0.00  0.00     0.057 A 
ATOM      8  C8  <0> d   1      -0.104  -4.298   0.236  0.00  0.00     0.219 A 
ATOM      9  O1  <0> d   1       0.779  -5.137   0.266  0.00  0.00    -0.284 OA
ATOM     10  C9  <0> d   1       0.043  -2.842   0.114  0.00  0.00     0.128 A 
ATOM     11  C10 <0> d   1       1.215  -2.160   0.010  0.00  0.00     0.055 C 
ATOM     12  O5  <0> d   1      -1.198  -2.302   0.130  0.00  0.00    -0.305 OA
ATOM     13  O7  <0> d   1      -5.663  -4.197   0.469  0.00  0.00    -0.191 OA
ENDROOT
BRANCH  11  14
ATOM     14  C11 <0> d   1       1.216  -0.696   0.057  0.00  0.00     0.003 A 
ATOM     15  C16 <0> d   1       2.411   0.002   0.307  0.00  0.00     0.114 A 
ATOM     16  C15 <0> d   1       2.402   1.388   0.349  0.00  0.00     0.136 A 
ATOM     17  C14 <0> d   1       1.214   2.082   0.145  0.00  0.00     0.104 A 
ATOM     18  C13 <0> d   1       0.032   1.392  -0.102  0.00  0.00     0.040 A 
ATOM     19  C12 <0> d   1       0.026   0.017  -0.146  0.00  0.00     0.017 A 
BRANCH  15  20
ATOM     20  O2  <0> d   1       3.569  -0.679   0.506  0.00  0.00    -0.352 OA
ATOM     21  C17 <0> d   1       4.410  -0.875  -0.633  0.00  0.00     0.210 C 
ENDBRANCH  15  20
BRANCH  16  22
ATOM     22  O3  <0> d   1       3.555   2.069   0.590  0.00  0.00    -0.351 OA
ATOM     23  C18 <0> d   1       3.824   2.431   1.946  0.00  0.00     0.210 C 
ENDBRANCH  16  22
BRANCH  17  24
ATOM     24  O4  <0> d   1       1.209   3.439   0.187  0.00  0.00    -0.353 OA
ATOM     25  C19 <0> d   1      -0.045   4.090  -0.031  0.00  0.00     0.210 C 
ENDBRANCH  17  24
ENDBRANCH  11  14
BRANCH   5  26
ATOM     26  C20 <0> d   1      -4.206  -1.802   0.213  0.00  0.00     0.317 C 
BRANCH  26  27
ATOM     27  N1  <0> d   1      -4.482  -1.474  -1.192  0.00  0.00     0.097 N 
ATOM     28  C24 <0> d   1      -5.338  -0.283  -1.296  0.00  0.00     0.299 C 
ATOM     29  C23 <0> d   1      -5.649  -0.013  -2.771  0.00  0.00     0.198 C 
ATOM     30  O6  <0> d   1      -4.423   0.136  -3.492  0.00  0.00    -0.388 OA
ATOM     31  C22 <0> d   1      -3.566  -1.006  -3.412  0.00  0.00     0.198 C 
ATOM     32  C21 <0> d   1      -3.233  -1.286  -1.944  0.00  0.00     0.299 C 
ENDBRANCH  26  27
ENDBRANCH   5  26
TORSDOF 6
