REMARK  6 active torsions:
REMARK  status: ('A' for Active; 'I' for Inactive)
REMARK    1  A    between atoms: C4_4  and  C7_7 
REMARK    2  A    between atoms: C7_7  and  N1_8 
REMARK    3  A    between atoms: N2_11  and  C12_14 
REMARK    4  A    between atoms: C12_14  and  C13_15 
REMARK    5  A    between atoms: C14_16  and  O3_32 
REMARK    6  A    between atoms: C20_24  and  C22_26 
ROOT
ATOM      1  C13 <0> d   1       6.872  -3.436   4.896  0.00  0.00     0.035 A 
ATOM      2  C14 <0> d   1       6.980  -4.818   4.910  0.00  0.00     0.076 A 
ATOM      3  C15 <0> d   1       8.232  -5.429   4.919  0.00  0.00     0.038 A 
ATOM      4  C16 <0> d   1       9.369  -4.676   4.926  0.00  0.00     0.017 A 
ATOM      5  C17 <0> d   1       9.281  -3.276   4.937  0.00  0.00    -0.000 A 
ATOM      6  C18 <0> d   1       8.017  -2.656   4.891  0.00  0.00     0.100 A 
ATOM      7  O1  <0> d   1       7.925  -1.306   4.825  0.00  0.00    -0.273 OA
ATOM      8  C19 <0> d   1       8.949  -0.597   5.355  0.00  0.00     0.301 C 
ATOM      9  O2  <0> d   1       8.749   0.435   5.968  0.00  0.00    -0.259 OA
ATOM     10  C20 <0> d   1      10.313  -1.117   5.165  0.00  0.00     0.069 C 
ATOM     11  C21 <0> d   1      10.454  -2.480   4.980  0.00  0.00     0.034 C 
ENDROOT
BRANCH   1  12
ATOM     12  C12 <0> d   1       5.513  -2.784   4.880  0.00  0.00     0.279 C 
BRANCH  12  13
ATOM     13  N2  <0> d   1       5.078  -2.592   3.490  0.00  0.00    -0.064 N 
ATOM     14  C9  <0> d   1       3.706  -2.068   3.475  0.00  0.00     0.265 C 
ATOM     15  C8  <0> d   1       3.246  -1.885   2.027  0.00  0.00     0.300 C 
ATOM     16  N1  <0> d   1       4.153  -0.953   1.342  0.00  0.00     0.095 N 
ATOM     17  C11 <0> d   1       5.535  -1.453   1.371  0.00  0.00     0.300 C 
ATOM     18  C10 <0> d   1       5.976  -1.639   2.824  0.00  0.00     0.265 C 
ATOM     19  H26 <0> d   1       5.106  -3.476   3.005  0.00  0.00     0.280 HD
BRANCH  16  20
ATOM     20  C7  <0> d   1       3.711  -0.707  -0.038  0.00  0.00     0.311 C 
BRANCH  20  21
ATOM     21  C4  <0> d   1       2.396   0.029  -0.020  0.00  0.00    -0.030 A 
ATOM     22  C3  <0> d   1       2.377   1.411  -0.013  0.00  0.00     0.009 A 
ATOM     23  C2  <0> d   1       1.171   2.086   0.002  0.00  0.00     0.001 A 
ATOM     24  C1  <0> d   1      -0.017   1.378   0.010  0.00  0.00     0.000 A 
ATOM     25  C6  <0> d   1       0.002  -0.004   0.002  0.00  0.00     0.001 A 
ATOM     26  C5  <0> d   1       1.208  -0.679  -0.012  0.00  0.00     0.009 A 
ENDBRANCH  20  21
ENDBRANCH  16  20
ENDBRANCH  12  13
ENDBRANCH   1  12
BRANCH   2  27
ATOM     27  O3  <0> d   1       5.857  -5.582   4.917  0.00  0.00    -0.360 OA
ATOM     28  H25 <0> d   1       5.533  -5.812   4.035  0.00  0.00     0.217 HD
ENDBRANCH   2  27
BRANCH  10  29
ATOM     29  C22 <0> d   1      11.489  -0.217   5.184  0.00  0.00     0.072 A 
ATOM     30  N3  <0> d   1      12.705  -0.719   5.009  0.00  0.00    -0.260 NA
ATOM     31  C26 <0> d   1      13.776   0.049   5.013  0.00  0.00     0.117 A 
ATOM     32  C25 <0> d   1      13.671   1.413   5.212  0.00  0.00     0.019 A 
ATOM     33  C24 <0> d   1      12.417   1.979   5.404  0.00  0.00     0.004 A 
ATOM     34  C23 <0> d   1      11.309   1.151   5.390  0.00  0.00     0.032 A 
ENDBRANCH  10  29
TORSDOF 6
