REMARK  6 active torsions:
REMARK  status: ('A' for Active; 'I' for Inactive)
REMARK    1  A    between atoms: C2_2  and  C3_3 
REMARK    2  A    between atoms: C6_6  and  C12_15 
REMARK    3  A    between atoms: C11_13  and  O3_14 
REMARK    4  A    between atoms: C12_15  and  N1_16 
REMARK    5  A    between atoms: N2_19  and  C17_22 
REMARK    6  A    between atoms: C17_22  and  C18_23 
ROOT
ATOM      1  N1  <0> d   1       8.052  -2.652   0.029  0.00  0.00     0.096 N 
ATOM      2  C13 <0> d   1       8.359  -1.292   0.496  0.00  0.00     0.303 C 
ATOM      3  C14 <0> d   1       7.340  -0.879   1.560  0.00  0.00     0.303 C 
ATOM      4  N2  <0> d   1       5.987  -0.944   0.991  0.00  0.00     0.096 N 
ATOM      5  C15 <0> d   1       5.680  -2.304   0.525  0.00  0.00     0.303 C 
ATOM      6  C16 <0> d   1       6.699  -2.717  -0.540  0.00  0.00     0.303 C 
ENDROOT
BRANCH   1   7
ATOM      7  C12 <0> d   1       9.054  -3.114  -0.940  0.00  0.00     0.312 C 
BRANCH   7   8
ATOM      8  C6  <0> d   1       8.654  -4.468  -1.469  0.00  0.00    -0.011 A 
ATOM      9  C5  <0> d   1       8.786  -5.668  -0.641  0.00  0.00     0.007 A 
ATOM     10  C4  <0> d   1       9.288  -5.593   0.663  0.00  0.00     0.024 A 
ATOM     11  C9  <0> d   1       8.399  -6.911  -1.176  0.00  0.00     0.093 A 
ATOM     12  C3  <0> d   1       9.401  -6.727   1.413  0.00  0.00    -0.024 A 
ATOM     13  C11 <0> d   1       9.020  -7.961   0.889  0.00  0.00     0.074 A 
ATOM     14  C10 <0> d   1       8.521  -8.054  -0.400  0.00  0.00     0.075 A 
ATOM     15  O2  <0> d   1       7.915  -6.980  -2.434  0.00  0.00    -0.275 OA
ATOM     16  C8  <0> d   1       7.790  -5.883  -3.198  0.00  0.00     0.288 A 
ATOM     17  C7  <0> d   1       8.154  -4.606  -2.725  0.00  0.00     0.092 A 
ATOM     18  O1  <0> d   1       7.348  -5.994  -4.328  0.00  0.00    -0.260 OA
BRANCH  12  19
ATOM     19  C2  <0> d   1       9.941  -6.645   2.818  0.00  0.00     0.037 C 
ATOM     20  C1  <0> d   1       8.779  -6.669   3.813  0.00  0.00     0.010 C 
ENDBRANCH  12  19
BRANCH  13  21
ATOM     21  O3  <0> d   1       9.138  -9.080   1.648  0.00  0.00    -0.360 OA
ATOM     22  H9  <0> d   1       8.838 -10.056   1.238  0.00  0.00     0.217 HD
ENDBRANCH  13  21
ENDBRANCH   7   8
ENDBRANCH   1   7
BRANCH   4  23
ATOM     23  C17 <0> d   1       4.985  -0.481   1.961  0.00  0.00     0.311 C 
BRANCH  23  24
ATOM     24  C18 <0> d   1       3.653  -0.329   1.273  0.00  0.00    -0.027 A 
ATOM     25  C23 <0> d   1       3.311   0.879   0.692  0.00  0.00     0.048 A 
ATOM     26  C22 <0> d   1       2.087   1.021   0.059  0.00  0.00     0.105 A 
ATOM     27  C21 <0> d   1       1.204  -0.054   0.009  0.00  0.00     0.105 A 
ATOM     28  O4  <0> d   1       1.518   2.084  -0.581  0.00  0.00    -0.323 OA
ATOM     29  C20 <0> d   1       1.553  -1.261   0.593  0.00  0.00     0.040 A 
ATOM     30  O5  <0> d   1       0.081   0.335  -0.662  0.00  0.00    -0.323 OA
ATOM     31  C19 <0> d   1       2.776  -1.396   1.224  0.00  0.00     0.012 A 
ATOM     32  C24 <0> d   1       0.114   1.775  -0.666  0.00  0.00     0.352 C 
ENDBRANCH  23  24
ENDBRANCH   4  23
TORSDOF 6
