REMARK  8 active torsions:
REMARK  status: ('A' for Active; 'I' for Inactive)
REMARK    1  A    between atoms: C4_4  and  N1_7 
REMARK    2  A    between atoms: N2_10  and  C11_13 
REMARK    3  A    between atoms: C11_13  and  C12_14 
REMARK    4  A    between atoms: C12_14  and  O1_15 
REMARK    5  A    between atoms: O1_15  and  C13_16 
REMARK    6  A    between atoms: C16_19  and  C19_23 
REMARK    7  A    between atoms: C17_20  and  O2_22 
REMARK    8  A    between atoms: C20_24  and  C22_29 
ROOT
ATOM      1  C13 <0> d   1       5.355  -5.968  -2.588  0.00  0.00     0.071 A 
ATOM      2  C14 <0> d   1       6.617  -6.476  -2.302  0.00  0.00     0.038 A 
ATOM      3  C15 <0> d   1       6.795  -7.832  -2.131  0.00  0.00     0.019 A 
ATOM      4  C16 <0> d   1       5.707  -8.699  -2.243  0.00  0.00     0.026 A 
ATOM      5  C17 <0> d   1       4.436  -8.185  -2.531  0.00  0.00     0.081 A 
ATOM      6  C18 <0> d   1       4.267  -6.821  -2.697  0.00  0.00     0.074 A 
ENDROOT
BRANCH   1   7
ATOM      7  O1  <0> d   1       5.187  -4.631  -2.756  0.00  0.00    -0.349 OA
BRANCH   7   8
ATOM      8  C12 <0> d   1       6.349  -3.809  -2.631  0.00  0.00     0.203 C 
BRANCH   8   9
ATOM      9  C11 <0> d   1       5.965  -2.345  -2.851  0.00  0.00     0.261 C 
BRANCH   9  10
ATOM     10  N2  <0> d   1       5.051  -1.913  -1.786  0.00  0.00    -0.066 N 
ATOM     11  C8  <0> d   1       5.765  -1.908  -0.503  0.00  0.00     0.254 C 
ATOM     12  C7  <0> d   1       4.785  -1.569   0.625  0.00  0.00     0.150 C 
ATOM     13  N1  <0> d   1       4.117  -0.300   0.297  0.00  0.00    -0.378 N 
ATOM     14  C10 <0> d   1       3.509  -0.161  -1.035  0.00  0.00     0.150 C 
ATOM     15  C9  <0> d   1       4.554  -0.565  -2.087  0.00  0.00     0.254 C 
ATOM     16  H28 <0> d   1       4.273  -2.553  -1.733  0.00  0.00     0.280 HD
BRANCH  13  17
ATOM     17  C4  <0> d   1       4.058   0.742   1.226  0.00  0.00     0.030 A 
ATOM     18  C3  <0> d   1       3.520   1.970   0.861  0.00  0.00     0.029 A 
ATOM     19  C2  <0> d   1       3.463   2.997   1.782  0.00  0.00     0.002 A 
ATOM     20  C1  <0> d   1       3.940   2.805   3.066  0.00  0.00     0.000 A 
ATOM     21  C6  <0> d   1       4.476   1.584   3.432  0.00  0.00     0.002 A 
ATOM     22  C5  <0> d   1       4.537   0.552   2.516  0.00  0.00     0.029 A 
ENDBRANCH  13  17
ENDBRANCH   9  10
ENDBRANCH   8   9
ENDBRANCH   7   8
ENDBRANCH   1   7
BRANCH   5  23
ATOM     23  O2  <0> d   1       3.372  -9.022  -2.643  0.00  0.00    -0.360 OA
ATOM     24  H22 <0> d   1       2.903  -9.176  -1.811  0.00  0.00     0.217 HD
ENDBRANCH   5  23
BRANCH   4  25
ATOM     25  C19 <0> d   1       5.894 -10.152  -2.060  0.00  0.00     0.075 A 
ATOM     26  C20 <0> d   1       5.364 -10.931  -1.040  0.00  0.00     0.022 A 
ATOM     27  C21 <0> d   1       5.797 -12.252  -1.256  0.00  0.00     0.153 A 
ATOM     28  N3  <0> d   1       6.538 -12.276  -2.332  0.00  0.00    -0.186 NA
ATOM     29  N4  <0> d   1       6.616 -10.984  -2.863  0.00  0.00    -0.277 N 
ATOM     30  H1  <0> d   1       7.100 -10.725  -3.663  0.00  0.00     0.189 HD
BRANCH  26  31
ATOM     31  C22 <0> d   1       4.503 -10.459   0.070  0.00  0.00    -0.022 A 
ATOM     32  C27 <0> d   1       3.293 -11.098   0.337  0.00  0.00     0.014 A 
ATOM     33  C26 <0> d   1       2.497 -10.657   1.375  0.00  0.00     0.024 A 
ATOM     34  C25 <0> d   1       2.894  -9.576   2.143  0.00  0.00     0.034 A 
ATOM     35  C24 <0> d   1       4.092  -8.935   1.879  0.00  0.00     0.024 A 
ATOM     36 Cl1  <0> d   1       1.885  -9.023   3.444  0.00  0.00    -0.084 Cl
ATOM     37  C23 <0> d   1       4.898  -9.371   0.847  0.00  0.00     0.014 A 
ENDBRANCH  26  31
ENDBRANCH   4  25
TORSDOF 8
