REMARK  8 active torsions:
REMARK  status: ('A' for Active; 'I' for Inactive)
REMARK    1  A    between atoms: O1_2  and  C2_3 
REMARK    2  A    between atoms: C5_6  and  C8_9 
REMARK    3  A    between atoms: C9_10  and  C12_19 
REMARK    4  A    between atoms: C10_14  and  C11_15 
REMARK    5  A    between atoms: C15_22  and  O3_26 
REMARK    6  A    between atoms: O3_26  and  C18_27 
REMARK    7  A    between atoms: C18_27  and  C19_28 
REMARK       I    between atoms: C19_28  and  N3_30 
REMARK    8  A    between atoms: N3_30  and  N4_31 
ROOT
ATOM      1  C8  <0> d   1       2.428  -2.621  -4.344  0.00  0.00     0.039 A 
ATOM      2  C9  <0> d   1       3.717  -3.212  -4.339  0.00  0.00     0.103 A 
ATOM      3  N1  <0> d   1       4.022  -3.523  -5.580  0.00  0.00    -0.173 NA
ATOM      4  H1  <0> d   1       2.916  -3.263  -7.368  0.00  0.00     0.189 HD
ATOM      5  N2  <0> d   1       2.956  -3.148  -6.405  0.00  0.00    -0.272 N 
ATOM      6  C10 <0> d   1       1.991  -2.604  -5.635  0.00  0.00     0.147 A 
ENDROOT
BRANCH   2   7
ATOM      7  C12 <0> d   1       4.569  -3.438  -3.147  0.00  0.00     0.032 A 
ATOM      8  C17 <0> d   1       5.184  -4.679  -2.950  0.00  0.00     0.122 A 
ATOM      9  C16 <0> d   1       5.984  -4.882  -1.838  0.00  0.00     0.077 A 
ATOM     10  O2  <0> d   1       5.003  -5.680  -3.851  0.00  0.00    -0.191 OA
ATOM     11  C15 <0> d   1       6.163  -3.861  -0.917  0.00  0.00     0.072 A 
ATOM     12  C14 <0> d   1       5.547  -2.631  -1.109  0.00  0.00     0.038 A 
ATOM     13  C13 <0> d   1       4.754  -2.418  -2.216  0.00  0.00     0.019 A 
BRANCH  11  14
ATOM     14  O3  <0> d   1       6.944  -4.064   0.176  0.00  0.00    -0.342 OA
BRANCH  14  15
ATOM     15  C18 <0> d   1       7.548  -5.353   0.312  0.00  0.00     0.279 C 
BRANCH  15  16
ATOM     16  C19 <0> d   1       8.370  -5.391   1.574  0.00  0.00     0.255 C 
ATOM     17  O4  <0> d   1       8.434  -4.412   2.287  0.00  0.00    -0.270 OA
ATOM     18  N3  <0> d   1       9.036  -6.514   1.910  0.00  0.00    -0.292 N 
ATOM     19  H14 <0> d   1       8.985  -7.297   1.340  0.00  0.00     0.183 HD
BRANCH  18  20
ATOM     20  N4  <0> d   1       9.782  -6.550   3.054  0.00  0.00    -0.247 NA
ATOM     21  H15 <0> d   1       9.222  -6.311   3.858  0.00  0.00     0.143 HD
ATOM     22  H16 <0> d   1      10.219  -7.451   3.172  0.00  0.00     0.143 HD
ENDBRANCH  18  20
ENDBRANCH  15  16
ENDBRANCH  14  15
ENDBRANCH  11  14
ENDBRANCH   2   7
BRANCH   1  23
ATOM     23  C5  <0> d   1       1.688  -2.119  -3.160  0.00  0.00    -0.021 A 
ATOM     24  C4  <0> d   1       1.448  -0.754  -3.015  0.00  0.00     0.015 A 
ATOM     25  C3  <0> d   1       0.759  -0.290  -1.913  0.00  0.00     0.037 A 
ATOM     26  C2  <0> d   1       0.306  -1.181  -0.950  0.00  0.00     0.068 A 
ATOM     27  C7  <0> d   1       0.549  -2.541  -1.090  0.00  0.00     0.037 A 
ATOM     28  C6  <0> d   1       1.232  -3.011  -2.192  0.00  0.00     0.015 A 
BRANCH  26  29
ATOM     29  O1  <0> d   1      -0.373  -0.721   0.134  0.00  0.00    -0.356 OA
ATOM     30  C1  <0> d   1      -0.588   0.689   0.214  0.00  0.00     0.210 C 
ENDBRANCH  26  29
ENDBRANCH   1  23
BRANCH   6  31
ATOM     31  C11 <0> d   1       0.666  -2.071  -6.116  0.00  0.00     0.434 C 
ATOM     32  F1  <0> d   1       0.577  -2.226  -7.503  0.00  0.00    -0.165 F 
ATOM     33  F2  <0> d   1      -0.373  -2.777  -5.500  0.00  0.00    -0.165 F 
ATOM     34  F3  <0> d   1       0.564  -0.714  -5.790  0.00  0.00    -0.165 F 
ENDBRANCH   6  31
TORSDOF 8
