REMARK  7 active torsions:
REMARK  status: ('A' for Active; 'I' for Inactive)
REMARK    1  A    between atoms: O1_2  and  C2_3 
REMARK    2  A    between atoms: C5_6  and  C8_9 
REMARK    3  A    between atoms: C10_14  and  C11_15 
REMARK    4  A    between atoms: C14_18  and  O3_22 
REMARK    5  A    between atoms: O3_22  and  C17_23 
REMARK    6  A    between atoms: C17_23  and  C18_24 
REMARK    7  A    between atoms: C18_24  and  N3_25 
ROOT
ATOM      1  C11 <0> d   1       3.638  -3.252  -2.256  0.00  0.00     0.032 A 
ATOM      2  C12 <0> d   1       3.164  -3.057  -0.960  0.00  0.00     0.019 A 
ATOM      3  C13 <0> d   1       3.776  -3.689   0.101  0.00  0.00     0.038 A 
ATOM      4  C14 <0> d   1       4.867  -4.521  -0.118  0.00  0.00     0.071 A 
ATOM      5  C15 <0> d   1       5.346  -4.721  -1.404  0.00  0.00     0.077 A 
ATOM      6  C16 <0> d   1       4.733  -4.094  -2.476  0.00  0.00     0.122 A 
ATOM      7  O2  <0> d   1       5.197  -4.293  -3.737  0.00  0.00    -0.191 OA
ENDROOT
BRANCH   1   8
ATOM      8  C10 <0> d   1       2.982  -2.573  -3.398  0.00  0.00     0.102 A 
ATOM      9  C8  <0> d   1       1.587  -2.513  -3.644  0.00  0.00     0.022 A 
ATOM     10  C9  <0> d   1       1.403  -1.795  -4.787  0.00  0.00     0.124 A 
ATOM     11  N1  <0> d   1       2.618  -1.425  -5.243  0.00  0.00    -0.288 N 
ATOM     12  H1  <0> d   1       2.789  -0.903  -6.043  0.00  0.00     0.188 HD
ATOM     13  N2  <0> d   1       3.589  -1.922  -4.367  0.00  0.00    -0.174 NA
BRANCH   9  14
ATOM     14  C5  <0> d   1       0.521  -3.118  -2.807  0.00  0.00    -0.022 A 
ATOM     15  C4  <0> d   1      -0.510  -2.324  -2.308  0.00  0.00     0.015 A 
ATOM     16  C3  <0> d   1      -1.499  -2.888  -1.530  0.00  0.00     0.037 A 
ATOM     17  C2  <0> d   1      -1.469  -4.246  -1.244  0.00  0.00     0.068 A 
ATOM     18  C7  <0> d   1      -0.440  -5.039  -1.735  0.00  0.00     0.037 A 
ATOM     19  C6  <0> d   1       0.549  -4.481  -2.518  0.00  0.00     0.015 A 
BRANCH  17  20
ATOM     20  O1  <0> d   1      -2.445  -4.800  -0.478  0.00  0.00    -0.356 OA
ATOM     21  C1  <0> d   1      -3.473  -3.927  -0.006  0.00  0.00     0.210 C 
ENDBRANCH  17  20
ENDBRANCH   9  14
ENDBRANCH   1   8
BRANCH   4  22
ATOM     22  O3  <0> d   1       5.467  -5.141   0.932  0.00  0.00    -0.349 OA
BRANCH  22  23
ATOM     23  C17 <0> d   1       6.583  -5.983   0.637  0.00  0.00     0.206 C 
BRANCH  23  24
ATOM     24  C18 <0> d   1       7.122  -6.590   1.934  0.00  0.00     0.299 C 
BRANCH  24  25
ATOM     25  N3  <0> d   1       6.100  -7.461   2.529  0.00  0.00     0.094 N 
ATOM     26  C22 <0> d   1       6.003  -8.733   1.799  0.00  0.00     0.298 C 
ATOM     27  C21 <0> d   1       4.889  -9.584   2.414  0.00  0.00     0.198 C 
ATOM     28  O4  <0> d   1       5.155  -9.777   3.805  0.00  0.00    -0.388 OA
ATOM     29  C20 <0> d   1       5.255  -8.558   4.547  0.00  0.00     0.198 C 
ATOM     30  C19 <0> d   1       6.374  -7.697   3.954  0.00  0.00     0.298 C 
ENDBRANCH  24  25
ENDBRANCH  23  24
ENDBRANCH  22  23
ENDBRANCH   4  22
TORSDOF 7
