REMARK  4 active torsions:
REMARK  status: ('A' for Active; 'I' for Inactive)
REMARK    1  A    between atoms: C9_10  and  C12_15 
REMARK    2  A    between atoms: C12_15  and  N1_16 
REMARK    3  A    between atoms: N2_19  and  C17_22 
REMARK    4  A    between atoms: C17_22  and  C18_23 
ROOT
ATOM      1  C1  <0> d   1       0.367   2.637   4.362  0.00  0.00     0.050 C 
ATOM      2  C2  <0> d   1       1.027   2.074   3.129  0.00  0.00    -0.037 A 
ATOM      3  C3  <0> d   1       0.543   2.410   1.882  0.00  0.00     0.046 A 
ATOM      4  C4  <0> d   1       1.146   1.896   0.742  0.00  0.00     0.091 A 
ATOM      5  C5  <0> d   1       2.249   1.034   0.872  0.00  0.00     0.014 A 
ATOM      6  C6  <0> d   1       2.729   0.701   2.142  0.00  0.00    -0.026 A 
ATOM      7  C7  <0> d   1       2.115   1.223   3.260  0.00  0.00     0.046 A 
ATOM      8 Cl1  <0> d   1       2.706   0.813   4.840  0.00  0.00    -0.083 Cl
ATOM      9  C8  <0> d   1       3.910  -0.224   2.288  0.00  0.00     0.051 C 
ATOM     10  C9  <0> d   1       2.878   0.497  -0.338  0.00  0.00    -0.011 A 
ATOM     11  C10 <0> d   1       2.365   0.858  -1.542  0.00  0.00     0.092 A 
ATOM     12  C11 <0> d   1       1.256   1.729  -1.598  0.00  0.00     0.288 A 
ATOM     13  O1  <0> d   1       0.806   2.046  -2.684  0.00  0.00    -0.260 OA
ATOM     14  O2  <0> d   1       0.685   2.217  -0.486  0.00  0.00    -0.275 OA
ENDROOT
BRANCH  10  15
ATOM     15  C12 <0> d   1       4.062  -0.431  -0.248  0.00  0.00     0.312 C 
BRANCH  15  16
ATOM     16  N1  <0> d   1       4.442  -0.873  -1.597  0.00  0.00     0.096 N 
ATOM     17  C16 <0> d   1       5.801  -1.433  -1.605  0.00  0.00     0.303 C 
ATOM     18  C15 <0> d   1       6.187  -1.806  -3.038  0.00  0.00     0.303 C 
ATOM     19  N2  <0> d   1       5.218  -2.776  -3.567  0.00  0.00     0.096 N 
ATOM     20  C14 <0> d   1       3.859  -2.216  -3.559  0.00  0.00     0.303 C 
ATOM     21  C13 <0> d   1       3.473  -1.843  -2.126  0.00  0.00     0.303 C 
BRANCH  19  22
ATOM     22  C17 <0> d   1       5.597  -3.218  -4.915  0.00  0.00     0.311 C 
BRANCH  22  23
ATOM     23  C18 <0> d   1       4.468  -4.012  -5.520  0.00  0.00    -0.030 A 
ATOM     24  C23 <0> d   1       3.489  -3.371  -6.256  0.00  0.00     0.009 A 
ATOM     25  C22 <0> d   1       2.454  -4.099  -6.812  0.00  0.00     0.001 A 
ATOM     26  C21 <0> d   1       2.397  -5.469  -6.630  0.00  0.00     0.000 A 
ATOM     27  C20 <0> d   1       3.376  -6.110  -5.894  0.00  0.00     0.001 A 
ATOM     28  C19 <0> d   1       4.415  -5.382  -5.344  0.00  0.00     0.009 A 
ENDBRANCH  22  23
ENDBRANCH  19  22
ENDBRANCH  15  16
ENDBRANCH  10  15
TORSDOF 4
