REMARK  3 active torsions:
REMARK  status: ('A' for Active; 'I' for Inactive)
REMARK    1  A    between atoms: C4_5  and  N2_7 
REMARK    2  A    between atoms: N3_10  and  C10_13 
REMARK    3  A    between atoms: C10_13  and  C11_14 
ROOT
ATOM      1  C11 <0> d   1       0.197  -6.689  -1.756  0.00  0.00    -0.014 A 
ATOM      2  C12 <0> d   1      -0.982  -6.547  -2.413  0.00  0.00     0.092 A 
ATOM      3  C13 <0> d   1      -2.037  -7.451  -2.164  0.00  0.00     0.288 A 
ATOM      4  O1  <0> d   1      -3.090  -7.312  -2.761  0.00  0.00    -0.260 OA
ATOM      5  O2  <0> d   1      -1.910  -8.459  -1.288  0.00  0.00    -0.275 OA
ATOM      6  C14 <0> d   1      -0.764  -8.657  -0.602  0.00  0.00     0.090 A 
ATOM      7  C15 <0> d   1       0.330  -7.797  -0.804  0.00  0.00     0.006 A 
ATOM      8  C16 <0> d   1       1.517  -8.003  -0.098  0.00  0.00     0.022 A 
ATOM      9  C17 <0> d   1       1.615  -9.053   0.791  0.00  0.00    -0.051 A 
ATOM     10  C18 <0> d   1       0.536  -9.906   0.985  0.00  0.00    -0.049 A 
ATOM     11  C19 <0> d   1      -0.647  -9.705   0.299  0.00  0.00     0.046 A 
ATOM     12  C20 <0> d   1       0.904 -10.965   2.004  0.00  0.00     0.039 C 
ATOM     13  C21 <0> d   1       2.445 -10.937   2.080  0.00  0.00     0.009 C 
ATOM     14  C22 <0> d   1       2.772  -9.487   1.665  0.00  0.00     0.039 C 
ENDROOT
BRANCH   1  15
ATOM     15  C10 <0> d   1       1.341  -5.739  -2.002  0.00  0.00     0.274 C 
BRANCH  15  16
ATOM     16  N3  <0> d   1       1.319  -4.675  -0.989  0.00  0.00    -0.064 N 
ATOM     17  C7  <0> d   1       2.500  -3.819  -1.156  0.00  0.00     0.255 C 
ATOM     18  C6  <0> d   1       2.540  -2.779  -0.031  0.00  0.00     0.152 C 
ATOM     19  N2  <0> d   1       1.260  -2.054  -0.021  0.00  0.00    -0.363 N 
ATOM     20  C9  <0> d   1       0.018  -2.840  -0.013  0.00  0.00     0.152 C 
ATOM     21  C8  <0> d   1       0.097  -3.877  -1.145  0.00  0.00     0.255 C 
ATOM     22  H24 <0> d   1       1.334  -5.090  -0.069  0.00  0.00     0.280 HD
BRANCH  19  23
ATOM     23  C4  <0> d   1       1.227  -0.664  -0.013  0.00  0.00     0.125 A 
ATOM     24  N1  <0> d   1       2.340   0.020  -0.229  0.00  0.00    -0.244 NA
ATOM     25  C3  <0> d   1       2.351   1.340  -0.230  0.00  0.00     0.119 A 
ATOM     26  C2  <0> d   1       1.194   2.058  -0.004  0.00  0.00     0.019 A 
ATOM     27  C1  <0> d   1       0.005   1.378   0.226  0.00  0.00     0.005 A 
ATOM     28  C5  <0> d   1       0.024  -0.005   0.221  0.00  0.00     0.050 A 
ENDBRANCH  19  23
ENDBRANCH  15  16
ENDBRANCH   1  15
TORSDOF 3
