REMARK  3 active torsions:
REMARK  status: ('A' for Active; 'I' for Inactive)
REMARK    1  A    between atoms: C5_5  and  C19_22 
REMARK    2  A    between atoms: C10_11  and  C11_12 
REMARK    3  A    between atoms: C19_22  and  N1_23 
ROOT
ATOM      1  C1  <0> d   1       4.526   1.477  -0.033  0.00  0.00     0.049 C 
ATOM      2  C2  <0> d   1       3.551   0.328  -0.030  0.00  0.00    -0.042 A 
ATOM      3  C3  <0> d   1       4.011  -0.959  -0.041  0.00  0.00     0.048 A 
ATOM      4  C4  <0> d   1       3.113  -2.022  -0.038  0.00  0.00     0.118 A 
ATOM      5  C5  <0> d   1       1.746  -1.791  -0.024  0.00  0.00     0.041 A 
ATOM      6  C6  <0> d   1       1.263  -0.489  -0.013  0.00  0.00     0.102 A 
ATOM      7  C7  <0> d   1       2.179   0.576  -0.016  0.00  0.00     0.057 A 
ATOM      8  C8  <0> d   1       1.377   1.813  -0.001  0.00  0.00     0.219 A 
ATOM      9  O1  <0> d   1       1.780   2.963   0.001  0.00  0.00    -0.284 OA
ATOM     10  C9  <0> d   1      -0.016   1.349   0.009  0.00  0.00     0.129 A 
ATOM     11  C10 <0> d   1      -1.127   2.139   0.019  0.00  0.00     0.078 C 
ATOM     12  O3  <0> d   1       0.002  -0.004   0.002  0.00  0.00    -0.305 OA
ATOM     13  O5  <0> d   1       3.579  -3.297  -0.049  0.00  0.00    -0.191 OA
ENDROOT
BRANCH  11  14
ATOM     14  C11 <0> d   1      -2.414   1.550   0.023  0.00  0.00     0.079 A 
ATOM     15  O2  <0> d   1      -2.665   0.223   0.018  0.00  0.00    -0.310 OA
ATOM     16  C18 <0> d   1      -3.997   0.008   0.024  0.00  0.00     0.086 A 
ATOM     17  C13 <0> d   1      -4.629   1.266   0.033  0.00  0.00     0.000 A 
ATOM     18  C17 <0> d   1      -4.773  -1.143   0.021  0.00  0.00     0.038 A 
ATOM     19  C12 <0> d   1      -3.593   2.234   0.038  0.00  0.00     0.051 A 
ATOM     20  C14 <0> d   1      -6.026   1.344   0.040  0.00  0.00     0.014 A 
ATOM     21  C15 <0> d   1      -6.769   0.198   0.037  0.00  0.00     0.001 A 
ATOM     22  C16 <0> d   1      -6.149  -1.044   0.028  0.00  0.00     0.003 A 
ENDBRANCH  11  14
BRANCH   5  23
ATOM     23  C19 <0> d   1       0.786  -2.952  -0.021  0.00  0.00     0.317 C 
BRANCH  23  24
ATOM     24  N1  <0> d   1       0.460  -3.322  -1.405  0.00  0.00     0.097 N 
ATOM     25  C23 <0> d   1      -0.282  -4.591  -1.450  0.00  0.00     0.299 C 
ATOM     26  C22 <0> d   1      -0.548  -4.968  -2.910  0.00  0.00     0.198 C 
ATOM     27  O4  <0> d   1      -1.256  -3.904  -3.550  0.00  0.00    -0.388 OA
ATOM     28  C21 <0> d   1      -0.563  -2.653  -3.525  0.00  0.00     0.198 C 
ATOM     29  C20 <0> d   1      -0.297  -2.252  -2.072  0.00  0.00     0.299 C 
ENDBRANCH  23  24
ENDBRANCH   5  23
TORSDOF 3
