REMARK  3 active torsions:
REMARK  status: ('A' for Active; 'I' for Inactive)
REMARK    1  A    between atoms: C8_8  and  C11_13 
REMARK    2  A    between atoms: C11_13  and  N1_14 
REMARK    3  A    between atoms: N2_17  and  C16_20 
ROOT
ATOM      1  C1  <0> d   1      -0.791   1.723   0.784  0.00  0.00     0.048 C 
ATOM      2  C2  <0> d   1      -0.702   0.227   0.623  0.00  0.00    -0.060 A 
ATOM      3  C3  <0> d   1      -0.847  -0.340  -0.635  0.00  0.00     0.016 A 
ATOM      4  C4  <0> d   1      -0.768  -1.706  -0.804  0.00  0.00    -0.027 A 
ATOM      5  C5  <0> d   1      -0.542  -2.526   0.294  0.00  0.00     0.096 A 
ATOM      6  C6  <0> d   1      -0.396  -1.948   1.567  0.00  0.00     0.007 A 
ATOM      7  C7  <0> d   1      -0.474  -0.560   1.716  0.00  0.00     0.021 A 
ATOM      8  C8  <0> d   1      -0.157  -2.821   2.721  0.00  0.00    -0.011 A 
ATOM      9  C9  <0> d   1      -0.087  -4.159   2.509  0.00  0.00     0.092 A 
ATOM     10  C10 <0> d   1      -0.244  -4.671   1.202  0.00  0.00     0.288 A 
ATOM     11  O1  <0> d   1      -0.179  -5.874   1.025  0.00  0.00    -0.260 OA
ATOM     12  O2  <0> d   1      -0.462  -3.866   0.151  0.00  0.00    -0.274 OA
ATOM     13  C21 <0> d   1      -0.928  -2.308  -2.176  0.00  0.00     0.051 C 
ENDROOT
BRANCH   8  14
ATOM     14  C11 <0> d   1       0.006  -2.247   4.105  0.00  0.00     0.312 C 
BRANCH  14  15
ATOM     15  N1  <0> d   1       1.405  -1.846   4.307  0.00  0.00     0.095 N 
ATOM     16  C15 <0> d   1       1.657  -1.504   5.713  0.00  0.00     0.292 C 
ATOM     17  C14 <0> d   1       3.157  -1.269   5.917  0.00  0.00     0.154 C 
ATOM     18  N2  <0> d   1       3.610  -0.265   4.942  0.00  0.00    -0.362 N 
ATOM     19  C13 <0> d   1       3.274  -0.470   3.525  0.00  0.00     0.154 C 
ATOM     20  C12 <0> d   1       1.769  -0.737   3.415  0.00  0.00     0.292 C 
BRANCH  18  21
ATOM     21  C16 <0> d   1       4.335   0.849   5.350  0.00  0.00     0.125 A 
ATOM     22  N3  <0> d   1       4.442   1.126   6.640  0.00  0.00    -0.244 NA
ATOM     23  C20 <0> d   1       5.126   2.170   7.069  0.00  0.00     0.119 A 
ATOM     24  C19 <0> d   1       5.749   3.022   6.180  0.00  0.00     0.019 A 
ATOM     25  C18 <0> d   1       5.656   2.770   4.817  0.00  0.00     0.005 A 
ATOM     26  C17 <0> d   1       4.937   1.665   4.398  0.00  0.00     0.050 A 
ENDBRANCH  18  21
ENDBRANCH  14  15
ENDBRANCH   8  14
TORSDOF 3
