REMARK  4 active torsions:
REMARK  status: ('A' for Active; 'I' for Inactive)
REMARK    1  A    between atoms: C8_10  and  C9_11 
REMARK    2  A    between atoms: C14_16  and  O3_30 
REMARK    3  A    between atoms: C15_17  and  C18_22 
REMARK    4  A    between atoms: C18_22  and  N3_23 
ROOT
ATOM      1  C9  <0> d   1      -2.084   6.702   0.403  0.00  0.00     0.086 A 
ATOM      2  C10 <0> d   1      -1.251   7.799   0.526  0.00  0.00     0.035 A 
ATOM      3  C11 <0> d   1      -1.831   9.078   0.717  0.00  0.00    -0.000 A 
ATOM      4  C12 <0> d   1      -1.013  10.212   0.840  0.00  0.00     0.017 A 
ATOM      5  C13 <0> d   1      -1.574  11.439   1.029  0.00  0.00     0.038 A 
ATOM      6  C14 <0> d   1      -2.960  11.578   1.101  0.00  0.00     0.076 A 
ATOM      7  C15 <0> d   1      -3.784  10.471   0.982  0.00  0.00     0.035 A 
ATOM      8  C16 <0> d   1      -3.230   9.212   0.790  0.00  0.00     0.100 A 
ATOM      9  O1  <0> d   1      -4.036   8.135   0.674  0.00  0.00    -0.273 OA
ATOM     10  C17 <0> d   1      -3.535   6.902   0.487  0.00  0.00     0.302 A 
ATOM     11  O2  <0> d   1      -4.286   5.950   0.387  0.00  0.00    -0.259 OA
ENDROOT
BRANCH   1  12
ATOM     12  C8  <0> d   1      -1.524   5.354   0.197  0.00  0.00     0.147 A 
ATOM     13  N1  <0> d   1      -0.553   5.034  -0.715  0.00  0.00    -0.333 N 
ATOM     14  C1  <0> d   1       0.104   5.957  -1.644  0.00  0.00     0.158 C 
ATOM     15  C2  <0> d   1      -0.309   3.679  -0.594  0.00  0.00     0.064 A 
ATOM     16  C7  <0> d   1      -1.167   3.214   0.418  0.00  0.00     0.086 A 
ATOM     17  C3  <0> d   1       0.552   2.796  -1.230  0.00  0.00     0.032 A 
ATOM     18  C6  <0> d   1      -1.147   1.860   0.768  0.00  0.00     0.034 A 
ATOM     19  N2  <0> d   1      -1.880   4.279   0.860  0.00  0.00    -0.228 NA
ATOM     20  C5  <0> d   1      -0.296   1.004   0.127  0.00  0.00     0.002 A 
ATOM     21  C4  <0> d   1       0.551   1.464  -0.872  0.00  0.00     0.002 A 
ENDBRANCH   1  12
BRANCH   7  22
ATOM     22  C18 <0> d   1      -5.280  10.632   1.062  0.00  0.00     0.279 C 
BRANCH  22  23
ATOM     23  N3  <0> d   1      -5.713  10.498   2.460  0.00  0.00    -0.064 N 
ATOM     24  C22 <0> d   1      -7.123  10.882   2.614  0.00  0.00     0.265 C 
ATOM     25  C21 <0> d   1      -7.511  10.805   4.092  0.00  0.00     0.299 C 
ATOM     26  N4  <0> d   1      -7.283   9.440   4.585  0.00  0.00     0.087 N 
ATOM     27  C20 <0> d   1      -5.873   9.056   4.431  0.00  0.00     0.299 C 
ATOM     28  C23 <0> d   1      -7.716   9.305   5.983  0.00  0.00     0.310 C 
ATOM     29  C19 <0> d   1      -5.485   9.133   2.953  0.00  0.00     0.265 C 
ATOM     30  H25 <0> d   1      -5.105  11.185   3.068  0.00  0.00     0.280 HD
ENDBRANCH  22  23
ENDBRANCH   7  22
BRANCH   6  31
ATOM     31  O3  <0> d   1      -3.505  12.806   1.289  0.00  0.00    -0.360 OA
ATOM     32  H24 <0> d   1      -4.598  12.920   1.347  0.00  0.00     0.217 HD
ENDBRANCH   6  31
TORSDOF 4
