REMARK  5 active torsions:
REMARK  status: ('A' for Active; 'I' for Inactive)
REMARK    1  A    between atoms: C2_2  and  N1_3 
REMARK    2  A    between atoms: C4_5  and  C11_12 
REMARK    3  A    between atoms: C17_19  and  O3_31 
REMARK    4  A    between atoms: C18_20  and  C20_23 
REMARK    5  A    between atoms: C20_23  and  N2_24 
ROOT
ATOM      1  C11 <0> d   1      -4.364  -1.773   1.679  0.00  0.00     0.055 C 
ATOM      2  C12 <0> d   1      -4.138  -1.820   3.021  0.00  0.00     0.128 A 
ATOM      3  C13 <0> d   1      -5.062  -2.262   4.004  0.00  0.00     0.218 A 
ATOM      4  O1  <0> d   1      -6.198  -2.668   3.823  0.00  0.00    -0.284 OA
ATOM      5  C14 <0> d   1      -4.355  -2.123   5.289  0.00  0.00     0.051 A 
ATOM      6  C15 <0> d   1      -4.709  -2.385   6.613  0.00  0.00     0.021 A 
ATOM      7  C16 <0> d   1      -3.812  -2.147   7.616  0.00  0.00     0.038 A 
ATOM      8  C17 <0> d   1      -2.547  -1.646   7.321  0.00  0.00     0.076 A 
ATOM      9  C18 <0> d   1      -2.182  -1.381   6.011  0.00  0.00     0.038 A 
ATOM     10  C19 <0> d   1      -3.082  -1.617   4.981  0.00  0.00     0.101 A 
ATOM     11  O2  <0> d   1      -2.990  -1.458   3.643  0.00  0.00    -0.305 OA
ENDROOT
BRANCH   1  12
ATOM     12  C4  <0> d   1      -3.316  -1.300   0.776  0.00  0.00    -0.005 A 
ATOM     13  C3  <0> d   1      -2.055  -0.870   1.128  0.00  0.00     0.103 A 
ATOM     14  N1  <0> d   1      -1.372  -0.511   0.012  0.00  0.00    -0.356 N 
ATOM     15  C6  <0> d   1      -2.155  -0.684  -1.111  0.00  0.00     0.045 A 
ATOM     16  C5  <0> d   1      -3.397  -1.188  -0.693  0.00  0.00     0.002 A 
ATOM     17  C7  <0> d   1      -1.931  -0.464  -2.466  0.00  0.00     0.030 A 
ATOM     18  C10 <0> d   1      -4.391  -1.463  -1.628  0.00  0.00     0.014 A 
ATOM     19  C9  <0> d   1      -4.152  -1.230  -2.966  0.00  0.00     0.001 A 
ATOM     20  C8  <0> d   1      -2.924  -0.736  -3.381  0.00  0.00     0.002 A 
BRANCH  14  21
ATOM     21  C2  <0> d   1       0.002  -0.004   0.002  0.00  0.00     0.124 C 
ATOM     22  C1  <0> d   1      -0.019   1.526   0.010  0.00  0.00     0.027 C 
ENDBRANCH  14  21
ENDBRANCH   1  12
BRANCH   9  23
ATOM     23  C20 <0> d   1      -0.810  -0.838   5.705  0.00  0.00     0.317 C 
BRANCH  23  24
ATOM     24  N2  <0> d   1       0.119  -1.953   5.479  0.00  0.00     0.096 N 
ATOM     25  C24 <0> d   1       1.402  -1.470   4.948  0.00  0.00     0.303 C 
ATOM     26  C23 <0> d   1       2.311  -2.666   4.653  0.00  0.00     0.302 C 
ATOM     27  N3  <0> d   1       2.512  -3.441   5.886  0.00  0.00     0.087 N 
ATOM     28  C22 <0> d   1       1.230  -3.923   6.417  0.00  0.00     0.302 C 
ATOM     29  C25 <0> d   1       3.442  -4.556   5.660  0.00  0.00     0.310 C 
ATOM     30  C21 <0> d   1       0.321  -2.728   6.712  0.00  0.00     0.303 C 
ENDBRANCH  23  24
ENDBRANCH   9  23
BRANCH   8  31
ATOM     31  O3  <0> d   1      -1.664  -1.413   8.326  0.00  0.00    -0.360 OA
ATOM     32  H27 <0> d   1      -1.100  -2.169   8.537  0.00  0.00     0.217 HD
ENDBRANCH   8  31
TORSDOF 5
