REMARK  6 active torsions:
REMARK  status: ('A' for Active; 'I' for Inactive)
REMARK    1  A    between atoms: C9_10  and  C10_11 
REMARK    2  A    between atoms: C13_14  and  O3_19 
REMARK    3  A    between atoms: C15_16  and  O2_17 
REMARK    4  A    between atoms: N1_24  and  C21_27 
REMARK    5  A    between atoms: C21_27  and  C22_28 
REMARK    6  A    between atoms: C22_28  and  O6_29 
ROOT
ATOM      1  C1  <0> d   1       1.611   1.026   0.007  0.00  0.00     0.054 C 
ATOM      2  C2  <0> d   1       1.190  -0.415  -0.123  0.00  0.00     0.007 A 
ATOM      3  C3  <0> d   1       1.256  -1.258   0.978  0.00  0.00     0.087 A 
ATOM      4  C4  <0> d   1       0.870  -2.590   0.869  0.00  0.00     0.005 A 
ATOM      5  C5  <0> d   1       0.424  -3.079  -0.328  0.00  0.00     0.030 A 
ATOM      6  C6  <0> d   1       0.353  -2.243  -1.442  0.00  0.00     0.052 A 
ATOM      7  C7  <0> d   1       0.734  -0.895  -1.344  0.00  0.00     0.099 A 
ATOM      8  O1  <0> d   1       0.584  -0.292  -2.543  0.00  0.00    -0.305 OA
ATOM      9  C8  <0> d   1       0.109  -1.146  -3.480  0.00  0.00     0.128 A 
ATOM     10  C9  <0> d   1      -0.154  -0.847  -4.780  0.00  0.00     0.055 C 
ATOM     11  C18 <0> d   1      -0.071  -2.454  -2.838  0.00  0.00     0.218 A 
ATOM     12  O4  <0> d   1      -0.480  -3.484  -3.346  0.00  0.00    -0.284 OA
ATOM     13  C19 <0> d   1       0.935  -3.511   2.061  0.00  0.00     0.316 C 
ATOM     14  N1  <0> d   1       1.804  -2.924   3.090  0.00  0.00     0.118 N 
ATOM     15  C20 <0> d   1       1.425  -1.523   3.337  0.00  0.00     0.448 C 
ATOM     16  O5  <0> d   1       1.705  -0.760   2.160  0.00  0.00    -0.320 OA
ENDROOT
BRANCH  10  17
ATOM     17  C10 <0> d   1       0.117   0.499  -5.291  0.00  0.00     0.000 A 
ATOM     18  C15 <0> d   1       0.215   0.723  -6.676  0.00  0.00     0.081 A 
ATOM     19  C14 <0> d   1       0.471   1.999  -7.146  0.00  0.00     0.074 A 
ATOM     20  C13 <0> d   1       0.630   3.048  -6.251  0.00  0.00     0.070 A 
ATOM     21  C12 <0> d   1       0.532   2.824  -4.880  0.00  0.00     0.038 A 
ATOM     22  C11 <0> d   1       0.274   1.572  -4.402  0.00  0.00     0.017 A 
BRANCH  18  23
ATOM     23  O2  <0> d   1       0.059  -0.306  -7.546  0.00  0.00    -0.355 OA
ATOM     24  C16 <0> d   1       0.172  -0.002  -8.938  0.00  0.00     0.210 C 
ENDBRANCH  18  23
BRANCH  20  25
ATOM     25  O3  <0> d   1       0.881   4.299  -6.714  0.00  0.00    -0.356 OA
ATOM     26  C17 <0> d   1       1.034   5.333  -5.740  0.00  0.00     0.210 C 
ENDBRANCH  20  25
ENDBRANCH  10  17
BRANCH  14  27
ATOM     27  C21 <0> d   1       1.755  -3.708   4.331  0.00  0.00     0.301 C 
BRANCH  27  28
ATOM     28  C22 <0> d   1       2.522  -5.018   4.137  0.00  0.00     0.197 C 
BRANCH  28  29
ATOM     29  O6  <0> d   1       3.896  -4.731   3.868  0.00  0.00    -0.394 OA
ATOM     30  C23 <0> d   1       4.704  -5.892   3.670  0.00  0.00     0.201 C 
ENDBRANCH  28  29
ENDBRANCH  27  28
ENDBRANCH  14  27
TORSDOF 6
