REMARK  5 active torsions:
REMARK  status: ('A' for Active; 'I' for Inactive)
REMARK    1  A    between atoms: C2_2  and  N1_3 
REMARK    2  A    between atoms: N2_6  and  C7_9 
REMARK    3  A    between atoms: C7_9  and  C8_10 
REMARK    4  A    between atoms: C15_18  and  C16_19 
REMARK    5  A    between atoms: C17_20  and  C18_21 
ROOT
ATOM      1  C8  <0> d   1      -4.931  -4.100  -0.816  0.00  0.00     0.039 A 
ATOM      2  C9  <0> d   1      -4.954  -4.861  -1.974  0.00  0.00     0.118 A 
ATOM      3  C10 <0> d   1      -4.964  -6.251  -1.908  0.00  0.00     0.041 A 
ATOM      4  C11 <0> d   1      -4.953  -6.881  -0.695  0.00  0.00     0.021 A 
ATOM      5  C12 <0> d   1      -4.930  -6.128   0.479  0.00  0.00     0.051 A 
ATOM      6  C13 <0> d   1      -4.913  -4.725   0.425  0.00  0.00     0.101 A 
ATOM      7  O1  <0> d   1      -4.885  -4.223   1.679  0.00  0.00    -0.305 OA
ATOM      8  C14 <0> d   1      -4.876  -5.202   2.613  0.00  0.00     0.127 A 
ATOM      9  C15 <0> d   1      -4.848  -5.024   3.966  0.00  0.00     0.041 C 
ATOM     10  C24 <0> d   1      -4.913  -6.489   1.908  0.00  0.00     0.218 A 
ATOM     11  O2  <0> d   1      -4.916  -7.606   2.396  0.00  0.00    -0.284 OA
ATOM     12  O3  <0> d   1      -4.966  -4.244  -3.183  0.00  0.00    -0.191 OA
ENDROOT
BRANCH   1  13
ATOM     13  C7  <0> d   1      -4.919  -2.596  -0.902  0.00  0.00     0.279 C 
BRANCH  13  14
ATOM     14  N2  <0> d   1      -3.530  -2.119  -0.956  0.00  0.00    -0.064 N 
ATOM     15  C4  <0> d   1      -3.519  -0.665  -1.160  0.00  0.00     0.265 C 
ATOM     16  C3  <0> d   1      -2.073  -0.171  -1.236  0.00  0.00     0.300 C 
ATOM     17  N1  <0> d   1      -1.376  -0.512   0.012  0.00  0.00     0.091 N 
ATOM     18  C6  <0> d   1      -1.400  -1.964   0.243  0.00  0.00     0.300 C 
ATOM     19  C5  <0> d   1      -2.852  -2.443   0.306  0.00  0.00     0.265 C 
ATOM     20  H26 <0> d   1      -3.050  -2.570  -1.721  0.00  0.00     0.280 HD
BRANCH  17  21
ATOM     21  C2  <0> d   1       0.002  -0.004   0.002  0.00  0.00     0.268 C 
ATOM     22  C1  <0> d   1      -0.019   1.526   0.010  0.00  0.00     0.037 C 
ENDBRANCH  17  21
ENDBRANCH  13  14
ENDBRANCH   1  13
BRANCH   9  23
ATOM     23  C16 <0> d   1      -4.826  -3.723   4.505  0.00  0.00     0.004 C 
ATOM     24  C17 <0> d   1      -4.800  -3.547   5.848  0.00  0.00     0.011 C 
BRANCH  24  25
ATOM     25  C18 <0> d   1      -4.777  -2.189   6.411  0.00  0.00    -0.036 A 
ATOM     26  C23 <0> d   1      -4.749  -2.003   7.798  0.00  0.00     0.011 A 
ATOM     27  C22 <0> d   1      -4.720  -0.727   8.317  0.00  0.00     0.001 A 
ATOM     28  C21 <0> d   1      -4.733   0.369   7.471  0.00  0.00     0.000 A 
ATOM     29  C20 <0> d   1      -4.766   0.194   6.099  0.00  0.00     0.001 A 
ATOM     30  C19 <0> d   1      -4.788  -1.076   5.563  0.00  0.00     0.011 A 
ENDBRANCH  24  25
ENDBRANCH   9  23
TORSDOF 5
