REMARK  8 active torsions:
REMARK  status: ('A' for Active; 'I' for Inactive)
REMARK    1  A    between atoms: O1_2  and  C2_3 
REMARK    2  A    between atoms: C5_6  and  C9_11 
REMARK    3  A    between atoms: C7_8  and  O2_9 
REMARK    4  A    between atoms: C16_19  and  C18_22 
REMARK    5  A    between atoms: C18_22  and  N1_23 
REMARK    6  A    between atoms: N2_26  and  C23_29 
REMARK    7  A    between atoms: C23_29  and  C24_30 
REMARK    8  A    between atoms: C24_30  and  O5_31 
ROOT
ATOM      1  C9  <0> d   1       2.491  -2.485  -4.360  0.00  0.00     0.053 C 
ATOM      2  C10 <0> d   1       2.954  -1.734  -5.392  0.00  0.00     0.127 A 
ATOM      3  C11 <0> d   1       3.527  -2.242  -6.646  0.00  0.00     0.218 A 
ATOM      4  O3  <0> d   1       3.686  -3.404  -6.978  0.00  0.00    -0.284 OA
ATOM      5  C12 <0> d   1       3.868  -1.030  -7.414  0.00  0.00     0.051 A 
ATOM      6  C13 <0> d   1       4.437  -0.826  -8.672  0.00  0.00     0.021 A 
ATOM      7  C14 <0> d   1       4.636   0.445  -9.130  0.00  0.00     0.041 A 
ATOM      8  C15 <0> d   1       4.273   1.537  -8.346  0.00  0.00     0.118 A 
ATOM      9  C16 <0> d   1       3.707   1.349  -7.096  0.00  0.00     0.039 A 
ATOM     10  C17 <0> d   1       3.497   0.062  -6.614  0.00  0.00     0.101 A 
ATOM     11  O4  <0> d   1       2.967  -0.382  -5.454  0.00  0.00    -0.305 OA
ATOM     12  O6  <0> d   1       4.476   2.796  -8.810  0.00  0.00    -0.191 OA
ENDROOT
BRANCH   9  13
ATOM     13  C18 <0> d   1       3.319   2.540  -6.258  0.00  0.00     0.279 C 
BRANCH  13  14
ATOM     14  N1  <0> d   1       1.932   2.919  -6.558  0.00  0.00    -0.064 N 
ATOM     15  C22 <0> d   1       1.515   4.002  -5.657  0.00  0.00     0.265 C 
ATOM     16  C21 <0> d   1       0.064   4.384  -5.956  0.00  0.00     0.300 C 
ATOM     17  N2  <0> d   1      -0.046   4.818  -7.356  0.00  0.00     0.093 N 
ATOM     18  C20 <0> d   1       0.391   3.753  -8.269  0.00  0.00     0.300 C 
ATOM     19  C19 <0> d   1       1.840   3.376  -7.950  0.00  0.00     0.265 C 
ATOM     20  H28 <0> d   1       1.329   2.121  -6.425  0.00  0.00     0.280 HD
BRANCH  17  21
ATOM     21  C23 <0> d   1      -1.416   5.249  -7.667  0.00  0.00     0.298 C 
BRANCH  21  22
ATOM     22  C24 <0> d   1      -1.746   6.513  -6.873  0.00  0.00     0.194 C 
BRANCH  22  23
ATOM     23  O5  <0> d   1      -0.906   7.583  -7.309  0.00  0.00    -0.399 OA
ATOM     24  H27 <0> d   1      -1.060   8.419  -6.847  0.00  0.00     0.209 HD
ENDBRANCH  22  23
ENDBRANCH  21  22
ENDBRANCH  17  21
ENDBRANCH  13  14
ENDBRANCH   9  13
BRANCH   1  25
ATOM     25  C5  <0> d   1       1.834  -1.837  -3.218  0.00  0.00    -0.031 A 
ATOM     26  C4  <0> d   1       1.798  -0.440  -3.128  0.00  0.00     0.014 A 
ATOM     27  C3  <0> d   1       1.181   0.164  -2.055  0.00  0.00     0.040 A 
ATOM     28  C2  <0> d   1       0.594  -0.608  -1.061  0.00  0.00     0.101 A 
ATOM     29  C7  <0> d   1       0.630  -2.000  -1.140  0.00  0.00     0.102 A 
ATOM     30  C6  <0> d   1       1.242  -2.615  -2.215  0.00  0.00     0.051 A 
BRANCH  28  31
ATOM     31  O1  <0> d   1      -0.014  -0.006  -0.006  0.00  0.00    -0.353 OA
ATOM     32  C1  <0> d   1      -0.015   1.423   0.013  0.00  0.00     0.210 C 
ENDBRANCH  28  31
BRANCH  29  33
ATOM     33  O2  <0> d   1       0.059  -2.752  -0.161  0.00  0.00    -0.353 OA
ATOM     34  C8  <0> d   1       0.134  -4.171  -0.306  0.00  0.00     0.210 C 
ENDBRANCH  29  33
ENDBRANCH   1  25
TORSDOF 8
