REMARK  6 active torsions:
REMARK  status: ('A' for Active; 'I' for Inactive)
REMARK    1  A    between atoms: C3_3  and  C19_24 
REMARK    2  A    between atoms: C8_9  and  O3_13 
REMARK    3  A    between atoms: O3_13  and  C11_14 
REMARK    4  A    between atoms: C11_14  and  C12_15 
REMARK    5  A    between atoms: C12_15  and  N1_16 
REMARK    6  A    between atoms: C22_27  and  O5_30 
ROOT
ATOM      1  C1  <0> d   1       0.363  -4.321   0.574  0.00  0.00     0.077 C 
ATOM      2  C2  <0> d   1       0.209  -2.828   0.447  0.00  0.00     0.065 A 
ATOM      3  C3  <0> d   1      -1.042  -2.305   0.375  0.00  0.00     0.054 A 
ATOM      4  C4  <0> d   1      -1.193  -0.845   0.250  0.00  0.00     0.198 A 
ATOM      5  O1  <0> d   1      -2.291  -0.319   0.183  0.00  0.00    -0.286 OA
ATOM      6  C5  <0> d   1       0.048  -0.050   0.213  0.00  0.00     0.049 A 
ATOM      7  C6  <0> d   1       0.014   1.341   0.098  0.00  0.00     0.021 A 
ATOM      8  C7  <0> d   1       1.182   2.046   0.067  0.00  0.00     0.038 A 
ATOM      9  C8  <0> d   1       2.406   1.385   0.148  0.00  0.00     0.071 A 
ATOM     10  C9  <0> d   1       2.456   0.006   0.263  0.00  0.00     0.075 A 
ATOM     11  C10 <0> d   1       1.277  -0.727   0.297  0.00  0.00     0.092 A 
ATOM     12  O2  <0> d   1       1.308  -2.070   0.408  0.00  0.00    -0.313 OA
ENDROOT
BRANCH   9  13
ATOM     13  O3  <0> d   1       3.560   2.099   0.116  0.00  0.00    -0.349 OA
BRANCH  13  14
ATOM     14  C11 <0> d   1       3.442   3.518  -0.004  0.00  0.00     0.203 C 
BRANCH  14  15
ATOM     15  C12 <0> d   1       4.837   4.147  -0.024  0.00  0.00     0.261 C 
BRANCH  15  16
ATOM     16  N1  <0> d   1       5.551   3.715  -1.233  0.00  0.00    -0.064 N 
ATOM     17  C16 <0> d   1       5.056   4.427  -2.420  0.00  0.00     0.266 C 
ATOM     18  C15 <0> d   1       5.784   3.905  -3.662  0.00  0.00     0.143 C 
ATOM     19  O4  <0> d   1       7.194   4.063  -3.483  0.00  0.00    -0.378 OA
ATOM     20  C17 <0> d   1       5.332   4.697  -4.890  0.00  0.00     0.041 C 
ATOM     21  C14 <0> d   1       7.710   3.381  -2.336  0.00  0.00     0.143 C 
ATOM     22  C13 <0> d   1       7.002   3.898  -1.081  0.00  0.00     0.266 C 
ATOM     23  C18 <0> d   1       9.213   3.642  -2.220  0.00  0.00     0.041 C 
ATOM     24  H30 <0> d   1       5.355   2.641  -1.372  0.00  0.00     0.280 HD
ENDBRANCH  15  16
ENDBRANCH  14  15
ENDBRANCH  13  14
ENDBRANCH   9  13
BRANCH   3  25
ATOM     25  C19 <0> d   1      -2.234  -3.187   0.421  0.00  0.00    -0.019 A 
ATOM     26  C24 <0> d   1      -3.123  -3.104   1.492  0.00  0.00     0.015 A 
ATOM     27  C23 <0> d   1      -4.231  -3.925   1.531  0.00  0.00     0.037 A 
ATOM     28  C22 <0> d   1      -4.461  -4.833   0.507  0.00  0.00     0.068 A 
ATOM     29  C21 <0> d   1      -3.578  -4.917  -0.561  0.00  0.00     0.037 A 
ATOM     30  C20 <0> d   1      -2.470  -4.096  -0.609  0.00  0.00     0.015 A 
BRANCH  28  31
ATOM     31  O5  <0> d   1      -5.553  -5.640   0.548  0.00  0.00    -0.356 OA
ATOM     32  C25 <0> d   1      -5.729  -6.551  -0.539  0.00  0.00     0.210 C 
ENDBRANCH  28  31
ENDBRANCH   3  25
TORSDOF 6
