REMARK  4 active torsions:
REMARK  status: ('A' for Active; 'I' for Inactive)
REMARK    1  A    between atoms: N1_4  and  C7_9 
REMARK    2  A    between atoms: C7_9  and  C8_10 
REMARK    3  A    between atoms: C8_10  and  C9_12 
REMARK    4  A    between atoms: C12_15  and  O4_19 
ROOT
ATOM      1  C8  <0> d   1       1.269  -2.147  -0.022  0.00  0.00     0.190 C 
ATOM      2  O2  <0> d   1       0.232  -2.778  -0.016  0.00  0.00    -0.290 OA
ENDROOT
BRANCH   1   3
ATOM      3  C7  <0> d   1       2.591  -2.869  -0.039  0.00  0.00     0.356 C 
BRANCH   3   4
ATOM      4  N1  <0> d   1       2.356  -4.319  -0.045  0.00  0.00     0.100 N 
ATOM      5  C3  <0> d   1       3.604  -5.054  -0.299  0.00  0.00     0.304 C 
ATOM      6  C2  <0> d   1       3.305  -6.554  -0.356  0.00  0.00     0.146 C 
ATOM      7  C1  <0> d   1       4.611  -7.329  -0.541  0.00  0.00     0.041 C 
ATOM      8  O1  <0> d   1       2.679  -6.957   0.865  0.00  0.00    -0.378 OA
ATOM      9  C5  <0> d   1       1.460  -6.262   1.144  0.00  0.00     0.146 C 
ATOM     10  C4  <0> d   1       1.741  -4.759   1.216  0.00  0.00     0.304 C 
ATOM     11  C6  <0> d   1       0.447  -6.540   0.031  0.00  0.00     0.041 C 
ENDBRANCH   3   4
ENDBRANCH   1   3
BRANCH   1  12
ATOM     12  C9  <0> d   1       1.234  -0.682  -0.013  0.00  0.00     0.048 A 
ATOM     13  C14 <0> d   1       0.002  -0.004   0.002  0.00  0.00     0.123 A 
ATOM     14  C13 <0> d   1      -0.017   1.380   0.010  0.00  0.00     0.077 A 
ATOM     15  O3  <0> d   1      -1.161  -0.702   0.010  0.00  0.00    -0.191 OA
ATOM     16  C12 <0> d   1       1.176   2.089   0.002  0.00  0.00     0.068 A 
ATOM     17  C11 <0> d   1       2.395   1.414  -0.014  0.00  0.00     0.037 A 
ATOM     18  C10 <0> d   1       2.429   0.051  -0.021  0.00  0.00     0.021 A 
BRANCH  16  19
ATOM     19  O4  <0> d   1       1.155   3.445   0.009  0.00  0.00    -0.361 OA
ATOM     20  H18 <0> d   1       0.194   3.980   0.021  0.00  0.00     0.217 HD
ENDBRANCH  16  19
ENDBRANCH   1  12
TORSDOF 4
