REMARK  4 active torsions:
REMARK  status: ('A' for Active; 'I' for Inactive)
REMARK    1  A    between atoms: C9_10  and  C10_11 
REMARK    2  A    between atoms: C13_14  and  O3_19 
REMARK    3  A    between atoms: C14_15  and  O2_17 
REMARK    4  A    between atoms: N1_24  and  C21_27 
ROOT
ATOM      1  C1  <0> d   1       4.780   5.950  -0.152  0.00  0.00     0.054 C 
ATOM      2  C2  <0> d   1       5.642   4.724  -0.307  0.00  0.00     0.007 A 
ATOM      3  C3  <0> d   1       7.017   4.857  -0.444  0.00  0.00     0.087 A 
ATOM      4  C4  <0> d   1       7.822   3.731  -0.585  0.00  0.00     0.005 A 
ATOM      5  C5  <0> d   1       7.261   2.483  -0.593  0.00  0.00     0.030 A 
ATOM      6  C6  <0> d   1       5.881   2.336  -0.457  0.00  0.00     0.052 A 
ATOM      7  C7  <0> d   1       5.058   3.464  -0.312  0.00  0.00     0.099 A 
ATOM      8  O1  <0> d   1       3.769   3.076  -0.202  0.00  0.00    -0.305 OA
ATOM      9  C8  <0> d   1       3.643   1.729  -0.255  0.00  0.00     0.127 A 
ATOM     10  C9  <0> d   1       2.483   1.028  -0.171  0.00  0.00     0.053 C 
ATOM     11  C18 <0> d   1       4.989   1.163  -0.426  0.00  0.00     0.218 A 
ATOM     12  O4  <0> d   1       5.298  -0.012  -0.520  0.00  0.00    -0.284 OA
ATOM     13  C19 <0> d   1       9.317   3.866  -0.728  0.00  0.00     0.317 C 
ATOM     14  N1  <0> d   1       9.653   5.245  -1.106  0.00  0.00     0.121 N 
ATOM     15  C20 <0> d   1       8.969   6.197  -0.216  0.00  0.00     0.448 C 
ATOM     16  O5  <0> d   1       7.561   6.102  -0.441  0.00  0.00    -0.320 OA
ENDROOT
BRANCH  10  17
ATOM     17  C10 <0> d   1       1.199   1.737  -0.112  0.00  0.00    -0.031 A 
ATOM     18  C15 <0> d   1      -0.003   1.019  -0.152  0.00  0.00     0.051 A 
ATOM     19  C14 <0> d   1      -1.207   1.693  -0.103  0.00  0.00     0.102 A 
ATOM     20  C13 <0> d   1      -1.225   3.083  -0.001  0.00  0.00     0.101 A 
ATOM     21  C12 <0> d   1      -0.034   3.797   0.039  0.00  0.00     0.040 A 
ATOM     22  C11 <0> d   1       1.173   3.134  -0.016  0.00  0.00     0.014 A 
BRANCH  19  23
ATOM     23  O2  <0> d   1      -2.376   0.999  -0.147  0.00  0.00    -0.353 OA
ATOM     24  C16 <0> d   1      -2.283  -0.423  -0.245  0.00  0.00     0.210 C 
ENDBRANCH  19  23
BRANCH  20  25
ATOM     25  O3  <0> d   1      -2.411   3.743   0.053  0.00  0.00    -0.353 OA
ATOM     26  C17 <0> d   1      -2.357   5.168   0.151  0.00  0.00     0.210 C 
ENDBRANCH  20  25
ENDBRANCH  10  17
BRANCH  14  27
ATOM     27  C21 <0> d   1      11.107   5.457  -1.087  0.00  0.00     0.240 C 
ATOM     28  C24 <0> d   1      11.428   6.871  -1.628  0.00  0.00     0.176 C 
ATOM     29  S1  <0> d   1      13.063   6.633  -2.435  0.00  0.00     0.146 S 
ATOM     30  C23 <0> d   1      13.270   4.821  -2.178  0.00  0.00     0.142 C 
ATOM     31  O6  <0> d   1      12.934   6.891  -3.827  0.00  0.00    -0.228 OA
ATOM     32  O7  <0> d   1      14.053   7.323  -1.685  0.00  0.00    -0.228 OA
ATOM     33  C22 <0> d   1      11.790   4.394  -1.963  0.00  0.00     0.052 C 
ENDBRANCH  14  27
TORSDOF 4
