REMARK  6 active torsions:
REMARK  status: ('A' for Active; 'I' for Inactive)
REMARK    1  A    between atoms: C2_2  and  N1_3 
REMARK    2  A    between atoms: C4_5  and  C12_14 
REMARK    3  A    between atoms: C9_10  and  O1_12 
REMARK    4  A    between atoms: C18_21  and  O4_34 
REMARK    5  A    between atoms: C19_22  and  C21_25 
REMARK    6  A    between atoms: C21_25  and  N2_26 
ROOT
ATOM      1  C12 <0> d   1      -2.453   1.650   0.021  0.00  0.00     0.055 C 
ATOM      2  C13 <0> d   1      -1.154   2.063   0.018  0.00  0.00     0.128 A 
ATOM      3  C14 <0> d   1      -0.015   1.216   0.009  0.00  0.00     0.218 A 
ATOM      4  O2  <0> d   1       0.002  -0.004   0.002  0.00  0.00    -0.284 OA
ATOM      5  C15 <0> d   1       1.144   2.127   0.003  0.00  0.00     0.051 A 
ATOM      6  C16 <0> d   1       2.524   1.926  -0.011  0.00  0.00     0.021 A 
ATOM      7  C17 <0> d   1       3.368   3.000  -0.013  0.00  0.00     0.038 A 
ATOM      8  C18 <0> d   1       2.854   4.295  -0.002  0.00  0.00     0.076 A 
ATOM      9  C19 <0> d   1       1.486   4.510   0.011  0.00  0.00     0.036 A 
ATOM     10  C20 <0> d   1       0.615   3.428   0.014  0.00  0.00     0.101 A 
ATOM     11  O3  <0> d   1      -0.733   3.350   0.026  0.00  0.00    -0.305 OA
ENDROOT
BRANCH   1  12
ATOM     12  C4  <0> d   1      -3.532   2.635   0.031  0.00  0.00    -0.005 A 
ATOM     13  C3  <0> d   1      -3.400   4.007   0.043  0.00  0.00     0.103 A 
ATOM     14  N1  <0> d   1      -4.628   4.580   0.045  0.00  0.00    -0.356 N 
ATOM     15  C6  <0> d   1      -5.614   3.613   0.044  0.00  0.00     0.045 A 
ATOM     16  C5  <0> d   1      -4.982   2.360   0.035  0.00  0.00     0.005 A 
ATOM     17  C7  <0> d   1      -7.004   3.677   0.050  0.00  0.00     0.033 A 
ATOM     18  C10 <0> d   1      -5.741   1.193   0.032  0.00  0.00     0.051 A 
ATOM     19  C9  <0> d   1      -7.122   1.275   0.038  0.00  0.00     0.069 A 
ATOM     20  C8  <0> d   1      -7.748   2.517   0.047  0.00  0.00     0.039 A 
BRANCH  14  21
ATOM     21  C2  <0> d   1      -4.875   6.024   0.054  0.00  0.00     0.124 C 
ATOM     22  C1  <0> d   1      -5.080   6.498   1.495  0.00  0.00     0.027 C 
ENDBRANCH  14  21
BRANCH  19  23
ATOM     23  O1  <0> d   1      -7.869   0.139   0.036  0.00  0.00    -0.356 OA
ATOM     24  C11 <0> d   1      -9.289   0.297   0.043  0.00  0.00     0.210 C 
ENDBRANCH  19  23
ENDBRANCH   1  12
BRANCH   9  25
ATOM     25  C21 <0> d   1       0.943   5.915   0.023  0.00  0.00     0.279 C 
BRANCH  25  26
ATOM     26  N2  <0> d   1       0.754   6.379  -1.358  0.00  0.00    -0.066 N 
ATOM     27  C26 <0> d   1       0.009   7.644  -1.391  0.00  0.00     0.239 C 
ATOM     28  C25 <0> d   1      -0.295   8.021  -2.843  0.00  0.00     0.008 C 
ATOM     29  C24 <0> d   1       1.020   8.160  -3.615  0.00  0.00     0.011 C 
ATOM     30  C27 <0> d   1      -1.052   9.350  -2.878  0.00  0.00     0.011 C 
ATOM     31  C23 <0> d   1       1.798   6.844  -3.524  0.00  0.00     0.008 C 
ATOM     32  C22 <0> d   1       2.041   6.502  -2.053  0.00  0.00     0.239 C 
ATOM     33  C28 <0> d   1       0.988   5.726  -4.183  0.00  0.00     0.011 C 
ATOM     34  H32 <0> d   1       0.156   5.624  -1.890  0.00  0.00     0.280 HD
ENDBRANCH  25  26
ENDBRANCH   9  25
BRANCH   8  35
ATOM     35  O4  <0> d   1       3.702   5.355  -0.004  0.00  0.00    -0.360 OA
ATOM     36  H33 <0> d   1       3.302   6.380   0.005  0.00  0.00     0.217 HD
ENDBRANCH   8  35
TORSDOF 6
