REMARK  3 active torsions:
REMARK  status: ('A' for Active; 'I' for Inactive)
REMARK    1  A    between atoms: C2_2  and  C3_3 
REMARK    2  A    between atoms: C20_25  and  C22_28 
REMARK    3  A    between atoms: C22_28  and  N3_29 
ROOT
ATOM      1  C3  <0> d   1       4.863   0.356  -0.044  0.00  0.00    -0.020 A 
ATOM      2  C4  <0> d   1       3.735  -0.433  -0.037  0.00  0.00     0.025 A 
ATOM      3  C5  <0> d   1       2.472   0.160  -0.021  0.00  0.00     0.012 A 
ATOM      4  C6  <0> d   1       1.254  -0.665  -0.013  0.00  0.00     0.014 A 
ATOM      5  C7  <0> d   1       0.002  -0.004   0.002  0.00  0.00     0.070 A 
ATOM      6  C8  <0> d   1      -1.156  -0.781   0.009  0.00  0.00     0.136 A 
ATOM      7  N1  <0> d   1      -1.096  -2.088   0.002  0.00  0.00    -0.258 NA
ATOM      8  C9  <0> d   1       0.064  -2.781  -0.013  0.00  0.00     0.088 A 
ATOM      9  C10 <0> d   1       1.261  -2.050  -0.021  0.00  0.00     0.049 A 
ATOM     10  S1  <0> d   1       2.540  -3.277  -0.040  0.00  0.00    -0.066 SA
ATOM     11  C11 <0> d   1       1.532  -4.739  -0.038  0.00  0.00     0.111 A 
ATOM     12  C12 <0> d   1       0.214  -4.251  -0.023  0.00  0.00     0.036 A 
ATOM     13  C13 <0> d   1      -0.815  -5.220  -0.019  0.00  0.00    -0.045 A 
ATOM     14  C14 <0> d   1      -0.474  -6.555  -0.029  0.00  0.00     0.034 A 
ATOM     15  C15 <0> d   1       0.858  -6.936  -0.044  0.00  0.00     0.032 A 
ATOM     16  N2  <0> d   1       1.812  -6.025  -0.048  0.00  0.00    -0.246 NA
ATOM     17  C16 <0> d   1       1.218  -8.399  -0.056  0.00  0.00     0.070 C 
ATOM     18  C17 <0> d   1      -2.261  -4.800  -0.003  0.00  0.00     0.049 C 
ATOM     19  C18 <0> d   1      -0.018   1.461   0.010  0.00  0.00     0.301 A 
ATOM     20  O1  <0> d   1      -1.080   2.052   0.018  0.00  0.00    -0.259 OA
ATOM     21  O2  <0> d   1       1.134   2.153   0.003  0.00  0.00    -0.273 OA
ATOM     22  C19 <0> d   1       2.348   1.558  -0.013  0.00  0.00     0.101 A 
ATOM     23  C20 <0> d   1       3.496   2.340  -0.020  0.00  0.00     0.040 A 
ATOM     24  C21 <0> d   1       4.745   1.742  -0.036  0.00  0.00     0.124 A 
ATOM     25  O3  <0> d   1       5.862   2.515  -0.043  0.00  0.00    -0.191 OA
ENDROOT
BRANCH  23  26
ATOM     26  C22 <0> d   1       3.381   3.842  -0.011  0.00  0.00     0.278 C 
BRANCH  26  27
ATOM     27  N3  <0> d   1       3.358   4.323   1.376  0.00  0.00    -0.075 N 
ATOM     28  C23 <0> d   1       4.640   4.067   2.045  0.00  0.00     0.269 C 
ATOM     29  C24 <0> d   1       3.011   5.750   1.433  0.00  0.00     0.269 C 
ATOM     30  H23 <0> d   1       2.578   3.764   1.915  0.00  0.00     0.279 HD
ENDBRANCH  26  27
ENDBRANCH  23  26
BRANCH   1  31
ATOM     31  C2  <0> d   1       6.228  -0.282  -0.061  0.00  0.00     0.037 C 
ATOM     32  C1  <0> d   1       6.758  -0.392   1.371  0.00  0.00     0.010 C 
ENDBRANCH   1  31
TORSDOF 3
