REMARK  6 active torsions:
REMARK  status: ('A' for Active; 'I' for Inactive)
REMARK    1  A    between atoms: N2_5  and  C6_8 
REMARK    2  A    between atoms: C6_8  and  C7_9 
REMARK    3  A    between atoms: C8_10  and  O5_30 
REMARK    4  A    between atoms: C14_17  and  C15_18 
REMARK    5  A    between atoms: C19_22  and  O3_26 
REMARK    6  A    between atoms: C20_23  and  O2_24 
ROOT
ATOM      1  C7  <0> d   1       2.407  -3.645   1.394  0.00  0.00     0.038 A 
ATOM      2  C8  <0> d   1       3.777  -3.700   1.194  0.00  0.00     0.076 A 
ATOM      3  C9  <0> d   1       4.611  -4.260   2.157  0.00  0.00     0.038 A 
ATOM      4  C10 <0> d   1       4.084  -4.762   3.314  0.00  0.00     0.021 A 
ATOM      5  C11 <0> d   1       2.707  -4.713   3.529  0.00  0.00     0.051 A 
ATOM      6  C12 <0> d   1       1.855  -4.146   2.567  0.00  0.00     0.101 A 
ATOM      7  O1  <0> d   1       0.577  -4.206   2.998  0.00  0.00    -0.305 OA
ATOM      8  C13 <0> d   1       0.484  -4.783   4.220  0.00  0.00     0.128 A 
ATOM      9  C14 <0> d   1      -0.657  -4.990   4.925  0.00  0.00     0.055 C 
ATOM     10  C23 <0> d   1       1.843  -5.156   4.638  0.00  0.00     0.218 A 
ATOM     11  O4  <0> d   1       2.181  -5.697   5.677  0.00  0.00    -0.284 OA
ENDROOT
BRANCH   9  12
ATOM     12  C15 <0> d   1      -1.933  -4.461   4.428  0.00  0.00     0.003 A 
ATOM     13  C20 <0> d   1      -3.035  -4.352   5.289  0.00  0.00     0.111 A 
ATOM     14  C19 <0> d   1      -4.237  -3.844   4.807  0.00  0.00     0.102 A 
ATOM     15  C18 <0> d   1      -4.344  -3.458   3.481  0.00  0.00     0.040 A 
ATOM     16  C17 <0> d   1      -3.257  -3.570   2.628  0.00  0.00     0.004 A 
ATOM     17  C16 <0> d   1      -2.058  -4.066   3.089  0.00  0.00     0.014 A 
BRANCH  13  18
ATOM     18  O2  <0> d   1      -2.928  -4.736   6.587  0.00  0.00    -0.352 OA
ATOM     19  C21 <0> d   1      -2.512  -3.741   7.525  0.00  0.00     0.210 C 
ENDBRANCH  13  18
BRANCH  14  20
ATOM     20  O3  <0> d   1      -5.308  -3.729   5.637  0.00  0.00    -0.353 OA
ATOM     21  C22 <0> d   1      -6.512  -3.204   5.074  0.00  0.00     0.210 C 
ENDBRANCH  14  20
ENDBRANCH   9  12
BRANCH   1  22
ATOM     22  C6  <0> d   1       1.515  -3.037   0.342  0.00  0.00     0.317 C 
BRANCH  22  23
ATOM     23  N2  <0> d   1       1.368  -1.598   0.598  0.00  0.00     0.096 N 
ATOM     24  C3  <0> d   1       0.706  -0.928  -0.530  0.00  0.00     0.303 C 
ATOM     25  C2  <0> d   1       0.644   0.578  -0.261  0.00  0.00     0.302 C 
ATOM     26  N1  <0> d   1      -0.085   0.818   0.993  0.00  0.00     0.087 N 
ATOM     27  C1  <0> d   1      -0.232   2.257   1.248  0.00  0.00     0.310 C 
ATOM     28  C5  <0> d   1       0.577   0.148   2.120  0.00  0.00     0.302 C 
ATOM     29  C4  <0> d   1       0.640  -1.357   1.851  0.00  0.00     0.303 C 
ENDBRANCH  22  23
ENDBRANCH   1  22
BRANCH   2  30
ATOM     30  O5  <0> d   1       4.310  -3.204   0.048  0.00  0.00    -0.360 OA
ATOM     31  H26 <0> d   1       4.552  -2.270   0.099  0.00  0.00     0.217 HD
ENDBRANCH   2  30
TORSDOF 6
