REMARK  6 active torsions:
REMARK  status: ('A' for Active; 'I' for Inactive)
REMARK    1  A    between atoms: C2_2  and  C3_3 
REMARK    2  A    between atoms: C3_3  and  C4_4 
REMARK    3  A    between atoms: C4_4  and  N1_5 
REMARK    4  A    between atoms: N1_5  and  C5_6 
REMARK    5  A    between atoms: C5_6  and  C6_7 
REMARK    6  A    between atoms: C13_15  and  C15_18 
ROOT
ATOM      1  C6  <0> d   1      -0.799   3.493  -1.076  0.00  0.00     0.039 A 
ATOM      2  C7  <0> d   1       0.189   4.204  -1.735  0.00  0.00     0.118 A 
ATOM      3  C8  <0> d   1       0.201   5.597  -1.705  0.00  0.00     0.041 A 
ATOM      4  C9  <0> d   1      -0.764   6.280  -1.022  0.00  0.00     0.021 A 
ATOM      5  C10 <0> d   1      -1.767   5.578  -0.352  0.00  0.00     0.050 A 
ATOM      6  C11 <0> d   1      -1.792   4.172  -0.381  0.00  0.00     0.100 A 
ATOM      7  O1  <0> d   1      -2.764   3.496   0.262  0.00  0.00    -0.320 OA
ATOM      8  C12 <0> d   1      -3.744   4.093   0.945  0.00  0.00     0.159 A 
ATOM      9  C13 <0> d   1      -3.843   5.443   1.051  0.00  0.00     0.048 A 
ATOM     10  C14 <0> d   1      -2.825   6.281   0.395  0.00  0.00     0.197 A 
ATOM     11  O2  <0> d   1      -2.864   7.498   0.456  0.00  0.00    -0.286 OA
ATOM     12  O3  <0> d   1       1.155   3.538  -2.418  0.00  0.00    -0.191 OA
ENDROOT
BRANCH   1  13
ATOM     13  C5  <0> d   1      -0.802   1.987  -1.117  0.00  0.00     0.276 C 
BRANCH  13  14
ATOM     14  N1  <0> d   1      -0.018   1.465   0.010  0.00  0.00    -0.071 N 
ATOM     15  H10 <0> d   1      -0.469   1.820   0.948  0.00  0.00     0.277 HD
ATOM     16  H20 <0> d   1       1.011   1.846  -0.069  0.00  0.00     0.277 HD
BRANCH  14  17
ATOM     17  C4  <0> d   1       0.002  -0.004   0.002  0.00  0.00     0.232 C 
BRANCH  17  18
ATOM     18  C3  <0> d   1       0.826  -0.509   1.188  0.00  0.00     0.027 C 
BRANCH  18  19
ATOM     19  C2  <0> d   1       0.847  -2.039   1.180  0.00  0.00    -0.003 C 
ATOM     20  C1  <0> d   1       1.671  -2.545   2.366  0.00  0.00     0.005 C 
ENDBRANCH  18  19
ENDBRANCH  17  18
ENDBRANCH  14  17
ENDBRANCH  13  14
ENDBRANCH   1  13
BRANCH   9  21
ATOM     21  C15 <0> d   1      -4.950   6.061   1.821  0.00  0.00    -0.020 A 
ATOM     22  C20 <0> d   1      -6.267   5.670   1.590  0.00  0.00     0.015 A 
ATOM     23  C19 <0> d   1      -7.293   6.247   2.309  0.00  0.00     0.043 A 
ATOM     24  C18 <0> d   1      -7.015   7.215   3.260  0.00  0.00     0.116 A 
ATOM     25  C17 <0> d   1      -5.707   7.607   3.494  0.00  0.00     0.043 A 
ATOM     26  F1  <0> d   1      -8.023   7.779   3.962  0.00  0.00    -0.206 F 
ATOM     27  C16 <0> d   1      -4.674   7.031   2.784  0.00  0.00     0.015 A 
ENDBRANCH   9  21
TORSDOF 6
