REMARK  8 active torsions:
REMARK  status: ('A' for Active; 'I' for Inactive)
REMARK    1  A    between atoms: C2_2  and  O1_3 
REMARK    2  A    between atoms: O1_3  and  C3_4 
REMARK    3  A    between atoms: C8_9  and  C9_10 
REMARK    4  A    between atoms: C16_18  and  C18_21 
REMARK    5  A    between atoms: C18_21  and  N1_22 
REMARK    6  A    between atoms: N2_25  and  C23_28 
REMARK    7  A    between atoms: C23_28  and  C24_29 
REMARK    8  A    between atoms: C24_29  and  O4_30 
ROOT
ATOM      1  C9  <0> d   1       4.282   3.942   8.310  0.00  0.00     0.055 C 
ATOM      2  C10 <0> d   1       3.858   4.602   7.202  0.00  0.00     0.128 A 
ATOM      3  C11 <0> d   1       3.514   6.028   7.118  0.00  0.00     0.218 A 
ATOM      4  O2  <0> d   1       3.546   6.857   8.011  0.00  0.00    -0.284 OA
ATOM      5  C12 <0> d   1       3.119   6.231   5.712  0.00  0.00     0.051 A 
ATOM      6  C13 <0> d   1       2.688   7.347   4.994  0.00  0.00     0.021 A 
ATOM      7  C14 <0> d   1       2.387   7.228   3.667  0.00  0.00     0.041 A 
ATOM      8  C15 <0> d   1       2.513   5.997   3.029  0.00  0.00     0.118 A 
ATOM      9  C16 <0> d   1       2.935   4.879   3.731  0.00  0.00     0.041 A 
ATOM     10  C17 <0> d   1       3.246   4.984   5.081  0.00  0.00     0.101 A 
ATOM     11  O3  <0> d   1       3.676   4.064   5.972  0.00  0.00    -0.305 OA
ATOM     12  O5  <0> d   1       2.216   5.889   1.709  0.00  0.00    -0.191 OA
ENDROOT
BRANCH   9  13
ATOM     13  C18 <0> d   1       3.063   3.552   3.029  0.00  0.00     0.317 C 
BRANCH  13  14
ATOM     14  N1  <0> d   1       1.792   2.822   3.126  0.00  0.00     0.096 N 
ATOM     15  C22 <0> d   1       1.944   1.435   2.664  0.00  0.00     0.303 C 
ATOM     16  C21 <0> d   1       0.622   0.689   2.856  0.00  0.00     0.302 C 
ATOM     17  N2  <0> d   1      -0.439   1.376   2.106  0.00  0.00     0.093 N 
ATOM     18  C20 <0> d   1      -0.591   2.763   2.568  0.00  0.00     0.302 C 
ATOM     19  C19 <0> d   1       0.731   3.510   2.377  0.00  0.00     0.303 C 
BRANCH  17  20
ATOM     20  C23 <0> d   1      -1.710   0.646   2.204  0.00  0.00     0.298 C 
BRANCH  20  21
ATOM     21  C24 <0> d   1      -2.646   1.100   1.081  0.00  0.00     0.194 C 
BRANCH  21  22
ATOM     22  O4  <0> d   1      -2.099   0.711  -0.181  0.00  0.00    -0.399 OA
ATOM     23  H27 <0> d   1      -2.635   0.953  -1.110  0.00  0.00     0.209 HD
ENDBRANCH  21  22
ENDBRANCH  20  21
ENDBRANCH  17  20
ENDBRANCH  13  14
ENDBRANCH   9  13
BRANCH   1  24
ATOM     24  C8  <0> d   1       4.717   2.544   8.212  0.00  0.00     0.000 A 
ATOM     25  C3  <0> d   1       4.826   1.754   9.368  0.00  0.00     0.079 A 
ATOM     26  C4  <0> d   1       5.233   0.434   9.261  0.00  0.00     0.037 A 
ATOM     27  C5  <0> d   1       5.540  -0.099   8.024  0.00  0.00     0.003 A 
ATOM     28  C6  <0> d   1       5.439   0.678   6.880  0.00  0.00     0.001 A 
ATOM     29  C7  <0> d   1       5.031   1.991   6.965  0.00  0.00     0.014 A 
BRANCH  25  30
ATOM     30  O1  <0> d   1       4.529   2.280  10.584  0.00  0.00    -0.351 OA
BRANCH  30  31
ATOM     31  C2  <0> d   1       4.663   1.416  11.714  0.00  0.00     0.171 C 
ATOM     32  C1  <0> d   1       4.288   2.179  12.986  0.00  0.00     0.034 C 
ENDBRANCH  30  31
ENDBRANCH  25  30
ENDBRANCH   1  24
TORSDOF 8
