REMARK  16 active torsions:
REMARK  status: ('A' for Active; 'I' for Inactive)
REMARK    1  A    between atoms: C2_2  and  O1_3 
REMARK    2  A    between atoms: O1_3  and  C3_4 
REMARK    3  A    between atoms: C3_4  and  C4_6 
REMARK    4  A    between atoms: C7_9  and  O3_12 
REMARK    5  A    between atoms: O3_12  and  C10_13 
REMARK    6  A    between atoms: C10_13  and  C20_24 
REMARK    7  A    between atoms: C11_14  and  N1_15 
REMARK    8  A    between atoms: N1_15  and  C13_17 
REMARK    9  A    between atoms: C13_17  and  C14_18 
REMARK   10  A    between atoms: C20_24  and  C21_26 
REMARK   11  A    between atoms: C24_29  and  O6_43 
REMARK   12  A    between atoms: C25_30  and  C27_33 
REMARK   13  A    between atoms: C26_31  and  O5_32 
REMARK   14  A    between atoms: C27_33  and  N2_34 
REMARK   15  A    between atoms: N2_34  and  C29_36 
REMARK   16  A    between atoms: C29_36  and  C30_37 
ROOT
ATOM      1  C10 <0> d   1      -7.214  -6.597  -0.051  0.00  0.00     0.142 C 
ATOM      2  C11 <0> d   1      -7.306  -7.688  -0.846  0.00  0.00     0.127 C 
ENDROOT
BRANCH   1   3
ATOM      3  O3  <0> d   1      -6.249  -5.665  -0.283  0.00  0.00    -0.305 OA
BRANCH   3   4
ATOM      4  C7  <0> d   1      -6.079  -5.228  -1.556  0.00  0.00     0.076 A 
ATOM      5  C6  <0> d   1      -7.048  -5.497  -2.517  0.00  0.00     0.038 A 
ATOM      6  C5  <0> d   1      -6.879  -5.055  -3.809  0.00  0.00     0.020 A 
ATOM      7  C4  <0> d   1      -5.732  -4.335  -4.156  0.00  0.00     0.039 A 
ATOM      8  C9  <0> d   1      -4.757  -4.072  -3.189  0.00  0.00     0.020 A 
ATOM      9  C8  <0> d   1      -4.936  -4.512  -1.897  0.00  0.00     0.038 A 
BRANCH   7  10
ATOM     10  C3  <0> d   1      -5.547  -3.860  -5.540  0.00  0.00     0.293 C 
ATOM     11  O2  <0> d   1      -4.547  -3.239  -5.840  0.00  0.00    -0.259 OA
BRANCH  10  12
ATOM     12  O1  <0> d   1      -6.487  -4.115  -6.471  0.00  0.00    -0.318 OA
BRANCH  12  13
ATOM     13  C2  <0> d   1      -6.243  -3.625  -7.790  0.00  0.00     0.174 C 
ATOM     14  C1  <0> d   1      -7.411  -4.008  -8.701  0.00  0.00     0.034 C 
ENDBRANCH  12  13
ENDBRANCH  10  12
ENDBRANCH   7  10
ENDBRANCH   3   4
ENDBRANCH   1   3
BRANCH   1  15
ATOM     15  C20 <0> d   1      -8.121  -6.425   1.024  0.00  0.00     0.220 C 
ATOM     16  O4  <0> d   1      -8.979  -5.561   0.965  0.00  0.00    -0.284 OA
BRANCH  15  17
ATOM     17  C21 <0> d   1      -8.028  -7.292   2.214  0.00  0.00     0.051 A 
ATOM     18  C26 <0> d   1      -9.192  -7.815   2.797  0.00  0.00     0.090 A 
ATOM     19  C25 <0> d   1      -9.096  -8.631   3.911  0.00  0.00     0.037 A 
ATOM     20  C24 <0> d   1      -7.853  -8.922   4.452  0.00  0.00     0.076 A 
ATOM     21  C23 <0> d   1      -6.698  -8.400   3.878  0.00  0.00     0.038 A 
ATOM     22  C22 <0> d   1      -6.780  -7.592   2.768  0.00  0.00     0.021 A 
BRANCH  18  23
ATOM     23  O5  <0> d   1     -10.408  -7.525   2.269  0.00  0.00    -0.359 OA
ATOM     24  H23 <0> d   1     -10.703  -8.151   1.594  0.00  0.00     0.217 HD
ENDBRANCH  18  23
BRANCH  19  25
ATOM     25  C27 <0> d   1     -10.343  -9.200   4.538  0.00  0.00     0.316 C 
BRANCH  25  26
ATOM     26  N2  <0> d   1     -10.844  -8.272   5.560  0.00  0.00     0.092 N 
ATOM     27  C28 <0> d   1     -11.301  -7.016   4.951  0.00  0.00     0.310 C 
BRANCH  26  28
ATOM     28  C29 <0> d   1     -11.913  -8.892   6.354  0.00  0.00     0.310 C 
BRANCH  28  29
ATOM     29  C30 <0> d   1     -12.232  -8.015   7.538  0.00  0.00    -0.030 A 
ATOM     30  C35 <0> d   1     -13.198  -7.032   7.430  0.00  0.00     0.009 A 
ATOM     31  C34 <0> d   1     -13.493  -6.231   8.517  0.00  0.00     0.001 A 
ATOM     32  C33 <0> d   1     -12.815  -6.406   9.710  0.00  0.00     0.000 A 
ATOM     33  C32 <0> d   1     -11.845  -7.386   9.816  0.00  0.00     0.001 A 
ATOM     34  C31 <0> d   1     -11.553  -8.190   8.730  0.00  0.00     0.009 A 
ENDBRANCH  28  29
ENDBRANCH  26  28
ENDBRANCH  25  26
ENDBRANCH  19  25
BRANCH  20  35
ATOM     35  O6  <0> d   1      -7.762  -9.720   5.547  0.00  0.00    -0.360 OA
ATOM     36  H36 <0> d   1      -7.797  -9.241   6.387  0.00  0.00     0.217 HD
ENDBRANCH  20  35
ENDBRANCH  15  17
ENDBRANCH   1  15
BRANCH   2  37
ATOM     37  N1  <0> d   1      -8.492  -8.369  -0.940  0.00  0.00    -0.388 N 
ATOM     38  C12 <0> d   1      -9.757  -7.633  -1.009  0.00  0.00     0.149 C 
BRANCH  37  39
ATOM     39  C13 <0> d   1      -8.495  -9.834  -0.971  0.00  0.00     0.160 C 
BRANCH  39  40
ATOM     40  C14 <0> d   1      -8.591 -10.366   0.436  0.00  0.00    -0.040 A 
ATOM     41  C19 <0> d   1      -9.830 -10.606   1.001  0.00  0.00     0.009 A 
ATOM     42  C18 <0> d   1      -9.918 -11.098   2.290  0.00  0.00     0.001 A 
ATOM     43  C17 <0> d   1      -8.768 -11.341   3.017  0.00  0.00     0.000 A 
ATOM     44  C16 <0> d   1      -7.529 -11.097   2.454  0.00  0.00     0.001 A 
ATOM     45  C15 <0> d   1      -7.441 -10.608   1.164  0.00  0.00     0.009 A 
ENDBRANCH  39  40
ENDBRANCH  37  39
ENDBRANCH   2  37
TORSDOF 16
