REMARK  9 active torsions:
REMARK  status: ('A' for Active; 'I' for Inactive)
REMARK    1  A    between atoms: O1_2  and  C2_3 
REMARK    2  A    between atoms: C5_6  and  C9_11 
REMARK    3  A    between atoms: C7_8  and  O2_9 
REMARK    4  A    between atoms: C15_18  and  O6_32 
REMARK    5  A    between atoms: C16_19  and  C18_22 
REMARK    6  A    between atoms: C18_22  and  N1_23 
REMARK    7  A    between atoms: N2_26  and  C23_29 
REMARK    8  A    between atoms: C23_29  and  C24_30 
REMARK    9  A    between atoms: C24_30  and  O5_31 
ROOT
ATOM      1  C9  <0> d   1       2.491  -2.485  -4.360  0.00  0.00     0.053 C 
ATOM      2  C10 <0> d   1       2.954  -1.734  -5.392  0.00  0.00     0.127 A 
ATOM      3  C11 <0> d   1       3.527  -2.242  -6.646  0.00  0.00     0.218 A 
ATOM      4  O3  <0> d   1       3.686  -3.404  -6.978  0.00  0.00    -0.284 OA
ATOM      5  C12 <0> d   1       3.868  -1.030  -7.414  0.00  0.00     0.051 A 
ATOM      6  C13 <0> d   1       4.437  -0.826  -8.672  0.00  0.00     0.021 A 
ATOM      7  C14 <0> d   1       4.636   0.445  -9.130  0.00  0.00     0.038 A 
ATOM      8  C15 <0> d   1       4.273   1.537  -8.346  0.00  0.00     0.076 A 
ATOM      9  C16 <0> d   1       3.707   1.349  -7.096  0.00  0.00     0.038 A 
ATOM     10  C17 <0> d   1       3.497   0.062  -6.614  0.00  0.00     0.101 A 
ATOM     11  O4  <0> d   1       2.967  -0.382  -5.454  0.00  0.00    -0.305 OA
ENDROOT
BRANCH   1  12
ATOM     12  C5  <0> d   1       1.834  -1.837  -3.218  0.00  0.00    -0.031 A 
ATOM     13  C4  <0> d   1       1.798  -0.440  -3.128  0.00  0.00     0.014 A 
ATOM     14  C3  <0> d   1       1.181   0.164  -2.055  0.00  0.00     0.040 A 
ATOM     15  C2  <0> d   1       0.594  -0.608  -1.061  0.00  0.00     0.101 A 
ATOM     16  C7  <0> d   1       0.630  -2.000  -1.140  0.00  0.00     0.102 A 
ATOM     17  C6  <0> d   1       1.242  -2.615  -2.215  0.00  0.00     0.051 A 
BRANCH  15  18
ATOM     18  O1  <0> d   1      -0.014  -0.006  -0.006  0.00  0.00    -0.353 OA
ATOM     19  C1  <0> d   1      -0.015   1.423   0.012  0.00  0.00     0.210 C 
ENDBRANCH  15  18
BRANCH  16  20
ATOM     20  O2  <0> d   1       0.059  -2.752  -0.161  0.00  0.00    -0.353 OA
ATOM     21  C8  <0> d   1       0.134  -4.171  -0.306  0.00  0.00     0.210 C 
ENDBRANCH  16  20
ENDBRANCH   1  12
BRANCH   9  22
ATOM     22  C18 <0> d   1       3.319   2.540  -6.258  0.00  0.00     0.317 C 
BRANCH  22  23
ATOM     23  N1  <0> d   1       1.932   2.919  -6.558  0.00  0.00     0.096 N 
ATOM     24  C22 <0> d   1       1.440   3.918  -5.598  0.00  0.00     0.303 C 
ATOM     25  C21 <0> d   1      -0.029   4.226  -5.896  0.00  0.00     0.302 C 
ATOM     26  N2  <0> d   1      -0.154   4.718  -7.275  0.00  0.00     0.093 N 
ATOM     27  C20 <0> d   1       0.338   3.719  -8.234  0.00  0.00     0.302 C 
ATOM     28  C19 <0> d   1       1.807   3.411  -7.937  0.00  0.00     0.303 C 
BRANCH  26  29
ATOM     29  C23 <0> d   1      -1.542   5.097  -7.575  0.00  0.00     0.298 C 
BRANCH  29  30
ATOM     30  C24 <0> d   1      -1.935   6.306  -6.724  0.00  0.00     0.194 C 
BRANCH  30  31
ATOM     31  O5  <0> d   1      -1.144   7.434  -7.104  0.00  0.00    -0.399 OA
ATOM     32  H27 <0> d   1      -1.341   8.239  -6.604  0.00  0.00     0.209 HD
ENDBRANCH  30  31
ENDBRANCH  29  30
ENDBRANCH  26  29
ENDBRANCH  22  23
ENDBRANCH   9  22
BRANCH   8  33
ATOM     33  O6  <0> d   1       4.476   2.796  -8.810  0.00  0.00    -0.360 OA
ATOM     34  H28 <0> d   1       3.731   3.156  -9.310  0.00  0.00     0.217 HD
ENDBRANCH   8  33
TORSDOF 9
