REMARK  7 active torsions:
REMARK  status: ('A' for Active; 'I' for Inactive)
REMARK    1  A    between atoms: O1_2  and  C2_3 
REMARK    2  A    between atoms: C5_6  and  C9_11 
REMARK    3  A    between atoms: C7_8  and  O2_9 
REMARK    4  A    between atoms: N1_23  and  C20_26 
REMARK    5  A    between atoms: C20_26  and  C21_27 
REMARK    6  A    between atoms: C21_27  and  C22_28 
REMARK    7  A    between atoms: C22_28  and  N2_29 
ROOT
ATOM      1  C9  <0> d   1       2.498  -2.492  -4.372  0.00  0.00     0.048 C 
ATOM      2  C10 <0> d   1       3.619  -3.242  -4.204  0.00  0.00     0.159 C 
ATOM      3  O3  <0> d   1       4.233  -3.859  -5.215  0.00  0.00    -0.320 OA
ATOM      4  C11 <0> d   1       3.977  -3.544  -6.499  0.00  0.00     0.100 A 
ATOM      5  C12 <0> d   1       2.837  -2.790  -6.832  0.00  0.00     0.050 A 
ATOM      6  C13 <0> d   1       1.951  -2.352  -5.735  0.00  0.00     0.197 C 
ATOM      7  O4  <0> d   1       0.839  -1.899  -5.942  0.00  0.00    -0.286 OA
ATOM      8  C14 <0> d   1       2.563  -2.473  -8.161  0.00  0.00     0.021 A 
ATOM      9  C15 <0> d   1       3.412  -2.892  -9.145  0.00  0.00     0.038 A 
ATOM     10  C16 <0> d   1       4.552  -3.634  -8.828  0.00  0.00     0.082 A 
ATOM     11  C17 <0> d   1       4.834  -3.958  -7.513  0.00  0.00     0.038 A 
ATOM     12  C18 <0> d   1       6.065  -4.752  -7.159  0.00  0.00     0.319 C 
ATOM     13  N1  <0> d   1       6.584  -5.420  -8.360  0.00  0.00     0.116 N 
ATOM     14  C19 <0> d   1       6.690  -4.458  -9.469  0.00  0.00     0.447 C 
ATOM     15  O5  <0> d   1       5.374  -4.035  -9.833  0.00  0.00    -0.321 OA
ENDROOT
BRANCH   1  16
ATOM     16  C5  <0> d   1       1.839  -1.837  -3.216  0.00  0.00    -0.017 A 
ATOM     17  C4  <0> d   1       1.786  -0.447  -3.137  0.00  0.00     0.015 A 
ATOM     18  C3  <0> d   1       1.172   0.162  -2.061  0.00  0.00     0.040 A 
ATOM     19  C2  <0> d   1       0.606  -0.608  -1.056  0.00  0.00     0.101 A 
ATOM     20  C7  <0> d   1       0.660  -1.997  -1.127  0.00  0.00     0.102 A 
ATOM     21  C6  <0> d   1       1.270  -2.612  -2.206  0.00  0.00     0.052 A 
BRANCH  19  22
ATOM     22  O1  <0> d   1       0.002  -0.004   0.002  0.00  0.00    -0.353 OA
ATOM     23  C1  <0> d   1      -0.017   1.425   0.010  0.00  0.00     0.210 C 
ENDBRANCH  19  22
BRANCH  20  24
ATOM     24  O2  <0> d   1       0.110  -2.750  -0.137  0.00  0.00    -0.353 OA
ATOM     25  C8  <0> d   1       0.202  -4.169  -0.274  0.00  0.00     0.210 C 
ENDBRANCH  20  24
ENDBRANCH   1  16
BRANCH  13  26
ATOM     26  C20 <0> d   1       7.879  -6.058  -8.090  0.00  0.00     0.277 C 
BRANCH  26  27
ATOM     27  C21 <0> d   1       8.267  -6.946  -9.274  0.00  0.00     0.058 C 
BRANCH  27  28
ATOM     28  C22 <0> d   1       9.617  -7.610  -8.993  0.00  0.00     0.236 C 
BRANCH  28  29
ATOM     29  N2  <0> d   1       9.989  -8.463 -10.130  0.00  0.00    -0.067 N 
ATOM     30  C26 <0> d   1      11.337  -9.006  -9.914  0.00  0.00     0.261 C 
ATOM     31  C25 <0> d   1      11.723  -9.894 -11.099  0.00  0.00     0.195 C 
ATOM     32  O6  <0> d   1      10.754 -10.936 -11.243  0.00  0.00    -0.388 OA
ATOM     33  C24 <0> d   1       9.420 -10.456 -11.432  0.00  0.00     0.195 C 
ATOM     34  C23 <0> d   1       9.029  -9.569 -10.247  0.00  0.00     0.261 C 
ATOM     35  H31 <0> d   1       9.978  -7.916 -10.978  0.00  0.00     0.280 HD
ENDBRANCH  28  29
ENDBRANCH  27  28
ENDBRANCH  26  27
ENDBRANCH  13  26
TORSDOF 7
