REMARK  8 active torsions:
REMARK  status: ('A' for Active; 'I' for Inactive)
REMARK    1  A    between atoms: C6_6  and  O5_31 
REMARK    2  A    between atoms: C7_7  and  C18_21 
REMARK    3  A    between atoms: C10_12  and  C11_13 
REMARK    4  A    between atoms: C14_16  and  O3_19 
REMARK    5  A    between atoms: C18_21  and  N1_22 
REMARK    6  A    between atoms: N2_25  and  C23_28 
REMARK    7  A    between atoms: C23_28  and  C24_29 
REMARK    8  A    between atoms: C24_29  and  O4_30 
ROOT
ATOM      1  C1  <0> d   1       1.224   1.336   1.062  0.00  0.00     0.050 C 
ATOM      2  C2  <0> d   1       0.298   1.799   2.157  0.00  0.00    -0.032 A 
ATOM      3  C3  <0> d   1      -1.097   1.911   1.923  0.00  0.00     0.006 A 
ATOM      4  C4  <0> d   1      -1.630   1.579   0.668  0.00  0.00     0.017 A 
ATOM      5  C5  <0> d   1      -2.972   1.683   0.449  0.00  0.00     0.038 A 
ATOM      6  C6  <0> d   1      -3.821   2.113   1.467  0.00  0.00     0.076 A 
ATOM      7  C7  <0> d   1      -3.314   2.440   2.714  0.00  0.00     0.038 A 
ATOM      8  C8  <0> d   1      -1.951   2.340   2.955  0.00  0.00     0.101 A 
ATOM      9  O1  <0> d   1      -1.456   2.658   4.171  0.00  0.00    -0.273 OA
ATOM     10  C9  <0> d   1      -0.141   2.570   4.433  0.00  0.00     0.300 A 
ATOM     11  O2  <0> d   1       0.279   2.863   5.537  0.00  0.00    -0.259 OA
ATOM     12  C10 <0> d   1       0.789   2.124   3.393  0.00  0.00     0.057 A 
ENDROOT
BRANCH   7  13
ATOM     13  C18 <0> d   1      -4.241   2.904   3.807  0.00  0.00     0.317 C 
BRANCH  13  14
ATOM     14  N1  <0> d   1      -4.373   4.366   3.750  0.00  0.00     0.096 N 
ATOM     15  C22 <0> d   1      -5.445   4.833   4.640  0.00  0.00     0.303 C 
ATOM     16  C21 <0> d   1      -5.603   6.348   4.491  0.00  0.00     0.302 C 
ATOM     17  N2  <0> d   1      -4.329   7.005   4.815  0.00  0.00     0.093 N 
ATOM     18  C20 <0> d   1      -3.257   6.538   3.925  0.00  0.00     0.302 C 
ATOM     19  C19 <0> d   1      -3.099   5.023   4.074  0.00  0.00     0.303 C 
BRANCH  17  20
ATOM     20  C23 <0> d   1      -4.461   8.467   4.758  0.00  0.00     0.298 C 
BRANCH  20  21
ATOM     21  C24 <0> d   1      -5.205   8.962   6.000  0.00  0.00     0.194 C 
BRANCH  21  22
ATOM     22  O4  <0> d   1      -4.420   8.692   7.163  0.00  0.00    -0.399 OA
ATOM     23  H27 <0> d   1      -4.794   8.978   8.158  0.00  0.00     0.209 HD
ENDBRANCH  21  22
ENDBRANCH  20  21
ENDBRANCH  17  20
ENDBRANCH  13  14
ENDBRANCH   7  13
BRANCH   6  24
ATOM     24  O5  <0> d   1      -5.155   2.212   1.236  0.00  0.00    -0.360 OA
ATOM     25  H28 <0> d   1      -5.829   2.551   2.036  0.00  0.00     0.217 HD
ENDBRANCH   6  24
BRANCH  12  26
ATOM     26  C11 <0> d   1       2.240   2.026   3.674  0.00  0.00    -0.019 A 
ATOM     27  C16 <0> d   1       2.976   3.176   3.959  0.00  0.00     0.015 A 
ATOM     28  C15 <0> d   1       4.327   3.082   4.221  0.00  0.00     0.037 A 
ATOM     29  C14 <0> d   1       4.954   1.843   4.202  0.00  0.00     0.068 A 
ATOM     30  C13 <0> d   1       4.225   0.696   3.918  0.00  0.00     0.037 A 
ATOM     31  C12 <0> d   1       2.873   0.783   3.660  0.00  0.00     0.015 A 
BRANCH  29  32
ATOM     32  O3  <0> d   1       6.285   1.753   4.461  0.00  0.00    -0.356 OA
ATOM     33  C17 <0> d   1       6.866   0.448   4.425  0.00  0.00     0.210 C 
ENDBRANCH  29  32
ENDBRANCH  12  26
TORSDOF 8
