REMARK  5 active torsions:
REMARK  status: ('A' for Active; 'I' for Inactive)
REMARK    1  A    between atoms: C3_3  and  C12_17 
REMARK    2  A    between atoms: C4_4  and  C5_8 
REMARK    3  A    between atoms: C8_11  and  O2_15 
REMARK    4  A    between atoms: C15_20  and  O4_25 
REMARK    5  A    between atoms: C16_21  and  O3_23 
ROOT
ATOM      1  C1  <0> d   1       0.212   1.496   0.014  0.00  0.00     0.070 C 
ATOM      2  C2  <0> d   1       0.101  -0.007   0.004  0.00  0.00     0.037 A 
ATOM      3  C3  <0> d   1      -0.029  -0.810   1.097  0.00  0.00     0.029 A 
ATOM      4  C4  <0> d   1      -0.099  -2.149   0.637  0.00  0.00     0.103 A 
ATOM      5  N1  <0> d   1      -0.014  -2.128  -0.676  0.00  0.00    -0.173 NA
ATOM      6  H1  <0> d   1       0.183  -0.493  -2.009  0.00  0.00     0.189 HD
ATOM      7  N2  <0> d   1       0.106  -0.797  -1.090  0.00  0.00    -0.281 N 
ENDROOT
BRANCH   3   8
ATOM      8  C12 <0> d   1      -0.086  -0.364   2.511  0.00  0.00    -0.019 A 
ATOM      9  C17 <0> d   1      -1.174   0.380   2.965  0.00  0.00     0.052 A 
ATOM     10  C16 <0> d   1      -1.226   0.789   4.286  0.00  0.00     0.102 A 
ATOM     11  C15 <0> d   1      -0.187   0.466   5.155  0.00  0.00     0.101 A 
ATOM     12  C14 <0> d   1       0.897  -0.269   4.701  0.00  0.00     0.040 A 
ATOM     13  C13 <0> d   1       0.951  -0.683   3.386  0.00  0.00     0.015 A 
BRANCH  10  14
ATOM     14  O3  <0> d   1      -2.288   1.510   4.733  0.00  0.00    -0.353 OA
ATOM     15  C18 <0> d   1      -3.317   1.804   3.786  0.00  0.00     0.210 C 
ENDBRANCH  10  14
BRANCH  11  16
ATOM     16  O4  <0> d   1      -0.237   0.873   6.452  0.00  0.00    -0.353 OA
ATOM     17  C19 <0> d   1       0.862   0.506   7.290  0.00  0.00     0.210 C 
ENDBRANCH  11  16
ENDBRANCH   3   8
BRANCH   4  18
ATOM     18  C5  <0> d   1      -0.243  -3.357   1.484  0.00  0.00     0.032 A 
ATOM     19  C10 <0> d   1       0.580  -4.467   1.267  0.00  0.00     0.122 A 
ATOM     20  C9  <0> d   1       0.444  -5.591   2.065  0.00  0.00     0.077 A 
ATOM     21  O1  <0> d   1       1.513  -4.441   0.280  0.00  0.00    -0.191 OA
ATOM     22  C8  <0> d   1      -0.513  -5.618   3.068  0.00  0.00     0.070 A 
ATOM     23  C7  <0> d   1      -1.334  -4.517   3.280  0.00  0.00     0.038 A 
ATOM     24  C6  <0> d   1      -1.202  -3.392   2.494  0.00  0.00     0.019 A 
BRANCH  22  25
ATOM     25  O2  <0> d   1      -0.648  -6.723   3.846  0.00  0.00    -0.356 OA
ATOM     26  C11 <0> d   1       0.228  -7.819   3.574  0.00  0.00     0.210 C 
ENDBRANCH  22  25
ENDBRANCH   4  18
TORSDOF 5
