REMARK  5 active torsions:
REMARK  status: ('A' for Active; 'I' for Inactive)
REMARK    1  A    between atoms: C9_10  and  C10_11 
REMARK    2  A    between atoms: N1_20  and  C19_23 
REMARK    3  A    between atoms: C19_23  and  C20_24 
REMARK    4  A    between atoms: C20_24  and  C21_25 
REMARK    5  A    between atoms: C21_25  and  N2_26 
ROOT
ATOM      1  C1  <0> d   1       0.074   1.497   0.006  0.00  0.00     0.054 C 
ATOM      2  C2  <0> d   1       0.087  -0.010   0.000  0.00  0.00     0.007 A 
ATOM      3  C3  <0> d   1       0.108  -0.697  -1.206  0.00  0.00     0.087 A 
ATOM      4  C4  <0> d   1       0.122  -2.088  -1.224  0.00  0.00     0.005 A 
ATOM      5  C5  <0> d   1       0.112  -2.789  -0.049  0.00  0.00     0.030 A 
ATOM      6  C6  <0> d   1       0.090  -2.111   1.169  0.00  0.00     0.052 A 
ATOM      7  C7  <0> d   1       0.085  -0.707   1.201  0.00  0.00     0.099 A 
ATOM      8  O1  <0> d   1       0.073  -0.279   2.482  0.00  0.00    -0.305 OA
ATOM      9  C8  <0> d   1       0.073  -1.312   3.358  0.00  0.00     0.127 A 
ATOM     10  C9  <0> d   1       0.061  -1.216   4.710  0.00  0.00     0.053 C 
ATOM     11  C16 <0> d   1       0.075  -2.558   2.574  0.00  0.00     0.218 A 
ATOM     12  O2  <0> d   1       0.078  -3.703   2.992  0.00  0.00    -0.284 OA
ATOM     13  C17 <0> d   1       0.152  -2.842  -2.529  0.00  0.00     0.316 C 
ATOM     14  N1  <0> d   1      -0.253  -1.949  -3.623  0.00  0.00     0.116 N 
ATOM     15  C18 <0> d   1       0.500  -0.686  -3.553  0.00  0.00     0.447 C 
ATOM     16  O3  <0> d   1       0.113   0.011  -2.366  0.00  0.00    -0.320 OA
ENDROOT
BRANCH  14  17
ATOM     17  C19 <0> d   1      -0.071  -2.598  -4.928  0.00  0.00     0.277 C 
BRANCH  17  18
ATOM     18  C20 <0> d   1      -0.728  -1.748  -6.018  0.00  0.00     0.058 C 
BRANCH  18  19
ATOM     19  C21 <0> d   1      -0.538  -2.425  -7.377  0.00  0.00     0.236 C 
BRANCH  19  20
ATOM     20  N2  <0> d   1      -1.169  -1.609  -8.422  0.00  0.00    -0.067 N 
ATOM     21  C25 <0> d   1      -0.885  -2.195  -9.739  0.00  0.00     0.261 C 
ATOM     22  C24 <0> d   1      -1.543  -1.342 -10.827  0.00  0.00     0.195 C 
ATOM     23  O4  <0> d   1      -2.950  -1.265 -10.579  0.00  0.00    -0.388 OA
ATOM     24  C23 <0> d   1      -3.277  -0.723  -9.297  0.00  0.00     0.195 C 
ATOM     25  C22 <0> d   1      -2.622  -1.574  -8.206  0.00  0.00     0.261 C 
ATOM     26  H29 <0> d   1      -0.800  -0.670  -8.385  0.00  0.00     0.280 HD
ENDBRANCH  19  20
ENDBRANCH  18  19
ENDBRANCH  17  18
ENDBRANCH  14  17
BRANCH  10  27
ATOM     27  C10 <0> d   1       0.163   0.102   5.354  0.00  0.00    -0.034 A 
ATOM     28  C15 <0> d   1       0.143   1.267   4.580  0.00  0.00     0.011 A 
ATOM     29  C14 <0> d   1       0.232   2.499   5.192  0.00  0.00     0.001 A 
ATOM     30  C13 <0> d   1       0.353   2.584   6.568  0.00  0.00     0.000 A 
ATOM     31  C12 <0> d   1       0.380   1.436   7.341  0.00  0.00     0.001 A 
ATOM     32  C11 <0> d   1       0.285   0.197   6.745  0.00  0.00     0.011 A 
ENDBRANCH  10  27
TORSDOF 5
