REMARK  4 active torsions:
REMARK  status: ('A' for Active; 'I' for Inactive)
REMARK    1  A    between atoms: N2_5  and  C6_8 
REMARK    2  A    between atoms: C6_8  and  C7_9 
REMARK    3  A    between atoms: C8_10  and  O3_27 
REMARK    4  A    between atoms: C14_17  and  C15_18 
ROOT
ATOM      1  C7  <0> d   1       4.029   0.903   1.748  0.00  0.00     0.038 A 
ATOM      2  C8  <0> d   1       5.114   0.580   0.949  0.00  0.00     0.076 A 
ATOM      3  C9  <0> d   1       6.334   1.230   1.115  0.00  0.00     0.038 A 
ATOM      4  C10 <0> d   1       6.475   2.190   2.077  0.00  0.00     0.021 A 
ATOM      5  C11 <0> d   1       5.392   2.522   2.891  0.00  0.00     0.051 A 
ATOM      6  C12 <0> d   1       4.155   1.877   2.731  0.00  0.00     0.101 A 
ATOM      7  O1  <0> d   1       3.268   2.362   3.626  0.00  0.00    -0.305 OA
ATOM      8  C13 <0> d   1       3.817   3.319   4.411  0.00  0.00     0.128 A 
ATOM      9  C14 <0> d   1       3.189   3.999   5.403  0.00  0.00     0.056 C 
ATOM     10  C21 <0> d   1       5.217   3.487   3.993  0.00  0.00     0.218 A 
ATOM     11  O2  <0> d   1       6.046   4.252   4.453  0.00  0.00    -0.284 OA
ENDROOT
BRANCH   1  12
ATOM     12  C6  <0> d   1       2.713   0.194   1.554  0.00  0.00     0.317 C 
BRANCH  12  13
ATOM     13  N2  <0> d   1       1.897   0.933   0.581  0.00  0.00     0.096 N 
ATOM     14  C3  <0> d   1       1.903   2.373   0.875  0.00  0.00     0.300 C 
ATOM     15  C2  <0> d   1       1.109   3.113  -0.204  0.00  0.00     0.264 C 
ATOM     16  N1  <0> d   1      -0.264   2.592  -0.244  0.00  0.00    -0.072 N 
ATOM     17  C1  <0> d   1      -1.080   3.330  -1.216  0.00  0.00     0.269 C 
ATOM     18  C5  <0> d   1      -0.269   1.152  -0.537  0.00  0.00     0.264 C 
ATOM     19  H22 <0> d   1      -0.712   2.737   0.751  0.00  0.00     0.279 HD
ATOM     20  C4  <0> d   1       0.524   0.411   0.542  0.00  0.00     0.300 C 
ENDBRANCH  12  13
ENDBRANCH   1  12
BRANCH   2  21
ATOM     21  O3  <0> d   1       4.986  -0.376  -0.006  0.00  0.00    -0.360 OA
ATOM     22  H21 <0> d   1       5.844  -0.637  -0.642  0.00  0.00     0.217 HD
ENDBRANCH   2  21
BRANCH   9  23
ATOM     23  C15 <0> d   1       1.746   3.825   5.614  0.00  0.00     0.005 A 
ATOM     24  C20 <0> d   1       1.028   4.757   6.376  0.00  0.00     0.126 A 
ATOM     25  C19 <0> d   1      -0.331   4.587   6.565  0.00  0.00     0.043 A 
ATOM     26  F1  <0> d   1       1.660   5.820   6.920  0.00  0.00    -0.205 F 
ATOM     27  C18 <0> d   1      -0.977   3.496   6.013  0.00  0.00     0.003 A 
ATOM     28  C17 <0> d   1      -0.273   2.569   5.263  0.00  0.00     0.001 A 
ATOM     29  C16 <0> d   1       1.081   2.725   5.060  0.00  0.00     0.014 A 
ENDBRANCH   9  23
TORSDOF 4
