REMARK  11 active torsions:
REMARK  status: ('A' for Active; 'I' for Inactive)
REMARK    1  A    between atoms: O1_2  and  C2_3 
REMARK    2  A    between atoms: C2_3  and  C3_4 
REMARK    3  A    between atoms: C3_4  and  N1_5 
REMARK    4  A    between atoms: N1_5  and  C4_6 
REMARK    5  A    between atoms: N1_5  and  C7_10 
REMARK    6  A    between atoms: C4_6  and  C5_7 
REMARK    7  A    between atoms: C5_7  and  O2_8 
REMARK    8  A    between atoms: C7_10  and  C8_11 
REMARK    9  A    between atoms: C15_19  and  C16_20 
REMARK   10  A    between atoms: C18_22  and  O5_28 
REMARK   11  A    between atoms: C21_25  and  O4_26 
ROOT
ATOM      1  C8  <0> d   1      -0.090  -3.044  -0.019  0.00  0.00     0.039 A 
ATOM      2  C9  <0> d   1      -1.194  -3.356   0.759  0.00  0.00     0.118 A 
ATOM      3  C10 <0> d   1      -2.289  -4.010   0.203  0.00  0.00     0.041 A 
ATOM      4  C11 <0> d   1      -2.286  -4.353  -1.120  0.00  0.00     0.021 A 
ATOM      5  C12 <0> d   1      -1.181  -4.045  -1.915  0.00  0.00     0.051 A 
ATOM      6  C13 <0> d   1      -0.073  -3.379  -1.367  0.00  0.00     0.101 A 
ATOM      7  O3  <0> d   1       0.861  -3.186  -2.323  0.00  0.00    -0.305 OA
ATOM      8  C14 <0> d   1       0.464  -3.677  -3.521  0.00  0.00     0.128 A 
ATOM      9  C15 <0> d   1       1.174  -3.641  -4.678  0.00  0.00     0.055 C 
ATOM     10  C24 <0> d   1      -0.869  -4.270  -3.338  0.00  0.00     0.218 A 
ATOM     11  O6  <0> d   1      -1.565  -4.813  -4.178  0.00  0.00    -0.284 OA
ATOM     12  O7  <0> d   1      -1.207  -3.020   2.074  0.00  0.00    -0.191 OA
ENDROOT
BRANCH   1  13
ATOM     13  C7  <0> d   1       1.089  -2.335   0.597  0.00  0.00     0.279 C 
BRANCH  13  14
ATOM     14  N1  <0> d   1       0.900  -0.882   0.485  0.00  0.00    -0.063 N 
ATOM     15  H29 <0> d   1       0.684  -0.644  -0.472  0.00  0.00     0.280 HD
BRANCH  14  16
ATOM     16  C3  <0> d   1      -0.207  -0.464   1.355  0.00  0.00     0.261 C 
BRANCH  16  17
ATOM     17  C2  <0> d   1      -0.496   1.022   1.135  0.00  0.00     0.194 C 
BRANCH  17  18
ATOM     18  O1  <0> d   1      -0.925   1.229  -0.213  0.00  0.00    -0.394 OA
ATOM     19  C1  <0> d   1      -1.115   2.603  -0.557  0.00  0.00     0.201 C 
ENDBRANCH  17  18
ENDBRANCH  16  17
ENDBRANCH  14  16
BRANCH  14  20
ATOM     20  C4  <0> d   1       2.132  -0.195   0.895  0.00  0.00     0.261 C 
BRANCH  20  21
ATOM     21  C5  <0> d   1       2.479  -0.586   2.333  0.00  0.00     0.194 C 
BRANCH  21  22
ATOM     22  O2  <0> d   1       2.873  -1.959   2.372  0.00  0.00    -0.394 OA
ATOM     23  C6  <0> d   1       3.120  -2.455   3.689  0.00  0.00     0.201 C 
ENDBRANCH  21  22
ENDBRANCH  20  21
ENDBRANCH  14  20
ENDBRANCH  13  14
ENDBRANCH   1  13
BRANCH   9  24
ATOM     24  C16 <0> d   1       2.562  -3.165  -4.673  0.00  0.00     0.003 A 
ATOM     25  C21 <0> d   1       3.186  -2.793  -5.875  0.00  0.00     0.078 A 
ATOM     26  C20 <0> d   1       4.495  -2.340  -5.860  0.00  0.00     0.040 A 
ATOM     27  C19 <0> d   1       5.189  -2.264  -4.668  0.00  0.00     0.039 A 
ATOM     28  C18 <0> d   1       4.581  -2.635  -3.474  0.00  0.00     0.069 A 
ATOM     29  C17 <0> d   1       3.274  -3.084  -3.470  0.00  0.00     0.051 A 
BRANCH  25  30
ATOM     30  O4  <0> d   1       2.506  -2.873  -7.048  0.00  0.00    -0.355 OA
ATOM     31  C22 <0> d   1       3.205  -2.478  -8.230  0.00  0.00     0.210 C 
ENDBRANCH  25  30
BRANCH  28  32
ATOM     32  O5  <0> d   1       5.274  -2.555  -2.307  0.00  0.00    -0.356 OA
ATOM     33  C23 <0> d   1       6.620  -2.083  -2.383  0.00  0.00     0.210 C 
ENDBRANCH  28  32
ENDBRANCH   9  24
TORSDOF 11
