REMARK  6 active torsions:
REMARK  status: ('A' for Active; 'I' for Inactive)
REMARK    1  A    between atoms: C3_3  and  O3_25 
REMARK    2  A    between atoms: C6_6  and  C8_9 
REMARK    3  A    between atoms: C7_7  and  O1_8 
REMARK    4  A    between atoms: C8_9  and  C9_11 
REMARK    5  A    between atoms: C9_11  and  N1_12 
REMARK    6  A    between atoms: N2_15  and  C14_18 
ROOT
ATOM      1  N1  <0> d   1       0.090  -4.872   3.791  0.00  0.00    -0.061 N 
ATOM      2  C10 <0> d   1       1.331  -4.464   4.462  0.00  0.00     0.255 C 
ATOM      3  C11 <0> d   1       1.287  -4.908   5.928  0.00  0.00     0.150 C 
ATOM      4  N2  <0> d   1       1.022  -6.354   5.969  0.00  0.00    -0.378 N 
ATOM      5  C12 <0> d   1      -0.112  -6.874   5.188  0.00  0.00     0.150 C 
ATOM      6  C13 <0> d   1      -0.002  -6.337   3.757  0.00  0.00     0.255 C 
ATOM      7  H22 <0> d   1      -0.701  -4.498   4.294  0.00  0.00     0.280 HD
ENDROOT
BRANCH   1   8
ATOM      8  C9  <0> d   1       0.084  -4.351   2.417  0.00  0.00     0.318 C 
BRANCH   8   9
ATOM      9  C8  <0> d   1       0.054  -2.844   2.451  0.00  0.00     0.188 C 
ATOM     10  O2  <0> d   1       0.039  -2.262   3.516  0.00  0.00    -0.290 OA
BRANCH   9  11
ATOM     11  C6  <0> d   1       0.043  -2.083   1.200  0.00  0.00     0.045 A 
ATOM     12  C5  <0> d   1       0.061  -2.753  -0.032  0.00  0.00     0.021 A 
ATOM     13  C4  <0> d   1       0.050  -2.042  -1.196  0.00  0.00     0.038 A 
ATOM     14  C3  <0> d   1       0.021  -0.650  -1.172  0.00  0.00     0.074 A 
ATOM     15  C2  <0> d   1       0.004   0.030   0.038  0.00  0.00     0.005 A 
ATOM     16  C1  <0> d   1      -0.026   1.536   0.056  0.00  0.00     0.054 C 
ATOM     17  C7  <0> d   1       0.021  -0.677   1.227  0.00  0.00     0.088 A 
BRANCH  14  18
ATOM     18  O3  <0> d   1       0.009   0.045  -2.337  0.00  0.00    -0.360 OA
ATOM     19  H21 <0> d   1       0.889   0.265  -2.672  0.00  0.00     0.217 HD
ENDBRANCH  14  18
BRANCH  17  20
ATOM     20  O1  <0> d   1       0.010  -0.018   2.413  0.00  0.00    -0.359 OA
ATOM     21  H6  <0> d   1      -0.876   0.155   2.758  0.00  0.00     0.217 HD
ENDBRANCH  17  20
ENDBRANCH   9  11
ENDBRANCH   8   9
ENDBRANCH   1   8
BRANCH   4  22
ATOM     22  C14 <0> d   1       1.823  -7.210   6.728  0.00  0.00     0.031 A 
ATOM     23  C19 <0> d   1       1.488  -8.552   6.849  0.00  0.00     0.053 A 
ATOM     24  C18 <0> d   1       2.287  -9.397   7.597  0.00  0.00     0.036 A 
ATOM     25  C17 <0> d   1       3.413  -8.904   8.233  0.00  0.00     0.024 A 
ATOM     26 Cl1  <0> d   1       1.873 -11.077   7.743  0.00  0.00    -0.084 Cl
ATOM     27  C16 <0> d   1       3.745  -7.567   8.118  0.00  0.00     0.004 A 
ATOM     28  C15 <0> d   1       2.954  -6.719   7.368  0.00  0.00     0.029 A 
ENDBRANCH   4  22
TORSDOF 6
