REMARK  7 active torsions:
REMARK  status: ('A' for Active; 'I' for Inactive)
REMARK    1  A    between atoms: C2_2  and  N1_3 
REMARK    2  A    between atoms: N2_6  and  C7_9 
REMARK    3  A    between atoms: C7_9  and  C8_10 
REMARK    4  A    between atoms: C9_11  and  O5_32 
REMARK    5  A    between atoms: C15_19  and  C18_22 
REMARK    6  A    between atoms: C21_25  and  O4_30 
REMARK    7  A    between atoms: C23_27  and  O3_28 
ROOT
ATOM      1  C8  <0> d   1      -0.018   1.503   0.010  0.00  0.00     0.038 A 
ATOM      2  C9  <0> d   1       1.171   2.212   0.003  0.00  0.00     0.076 A 
ATOM      3  C10 <0> d   1       1.163   3.605   0.010  0.00  0.00     0.038 A 
ATOM      4  C11 <0> d   1      -0.018   4.289   0.024  0.00  0.00     0.017 A 
ATOM      5  C12 <0> d   1      -1.232   3.588   0.032  0.00  0.00     0.006 A 
ATOM      6  C13 <0> d   1      -1.229   2.181   0.020  0.00  0.00     0.101 A 
ATOM      7  O1  <0> d   1      -2.389   1.489   0.031  0.00  0.00    -0.273 OA
ATOM      8  C14 <0> d   1      -3.576   2.119   0.044  0.00  0.00     0.300 A 
ATOM      9  O2  <0> d   1      -4.607   1.471   0.050  0.00  0.00    -0.259 OA
ATOM     10  C15 <0> d   1      -3.633   3.583   0.052  0.00  0.00     0.059 A 
ATOM     11  C16 <0> d   1      -2.463   4.294   0.046  0.00  0.00    -0.032 A 
ATOM     12  C17 <0> d   1      -2.482   5.801   0.053  0.00  0.00     0.050 C 
ENDROOT
BRANCH  10  13
ATOM     13  C18 <0> d   1      -4.938   4.284   0.067  0.00  0.00     0.014 A 
ATOM     14  C23 <0> d   1      -5.548   4.604   1.285  0.00  0.00     0.082 A 
ATOM     15  C22 <0> d   1      -6.766   5.263   1.292  0.00  0.00     0.074 A 
ATOM     16  C21 <0> d   1      -7.382   5.596   0.095  0.00  0.00     0.070 A 
ATOM     17  C20 <0> d   1      -6.779   5.274  -1.114  0.00  0.00     0.038 A 
ATOM     18  C19 <0> d   1      -5.564   4.621  -1.132  0.00  0.00     0.018 A 
BRANCH  14  19
ATOM     19  O3  <0> d   1      -4.946   4.274   2.457  0.00  0.00    -0.355 OA
ATOM     20  C24 <0> d   1      -5.627   4.633   3.661  0.00  0.00     0.210 C 
ENDBRANCH  14  19
BRANCH  16  21
ATOM     21  O4  <0> d   1      -8.579   6.239   0.105  0.00  0.00    -0.356 OA
ATOM     22  C25 <0> d   1      -9.159   6.551  -1.163  0.00  0.00     0.210 C 
ENDBRANCH  16  21
ENDBRANCH  10  13
BRANCH   1  23
ATOM     23  C7  <0> d   1       0.002  -0.004   0.002  0.00  0.00     0.317 C 
BRANCH  23  24
ATOM     24  N2  <0> d   1       0.022  -0.501   1.384  0.00  0.00     0.096 N 
ATOM     25  C4  <0> d   1      -0.196  -1.954   1.425  0.00  0.00     0.303 C 
ATOM     26  C3  <0> d   1      -0.248  -2.419   2.882  0.00  0.00     0.302 C 
ATOM     27  N1  <0> d   1       1.009  -2.059   3.553  0.00  0.00     0.091 N 
ATOM     28  C6  <0> d   1       1.227  -0.606   3.513  0.00  0.00     0.302 C 
ATOM     29  C5  <0> d   1       1.279  -0.141   2.055  0.00  0.00     0.303 C 
BRANCH  27  30
ATOM     30  C2  <0> d   1       1.029  -2.556   4.935  0.00  0.00     0.268 C 
ATOM     31  C1  <0> d   1       2.433  -2.386   5.518  0.00  0.00     0.037 C 
ENDBRANCH  27  30
ENDBRANCH  23  24
ENDBRANCH   1  23
BRANCH   2  32
ATOM     32  O5  <0> d   1       2.354   1.545  -0.012  0.00  0.00    -0.360 OA
ATOM     33  H30 <0> d   1       3.301   2.105  -0.018  0.00  0.00     0.217 HD
ENDBRANCH   2  32
TORSDOF 7
