REMARK  4 active torsions:
REMARK  status: ('A' for Active; 'I' for Inactive)
REMARK    1  A    between atoms: O1_2  and  C2_3 
REMARK    2  A    between atoms: C5_6  and  C9_11 
REMARK    3  A    between atoms: C7_8  and  O2_9 
REMARK    4  A    between atoms: C16_19  and  O5_22 
ROOT
ATOM      1  C9  <0> d   1       0.186   6.045  -0.437  0.00  0.00     0.053 C 
ATOM      2  C10 <0> d   1      -0.011   7.383  -0.322  0.00  0.00     0.128 A 
ATOM      3  C11 <0> d   1       0.394   8.407  -1.296  0.00  0.00     0.218 A 
ATOM      4  O3  <0> d   1       0.967   8.241  -2.358  0.00  0.00    -0.284 OA
ATOM      5  C12 <0> d   1      -0.048   9.681  -0.698  0.00  0.00     0.054 A 
ATOM      6  C13 <0> d   1       0.034  11.010  -1.116  0.00  0.00     0.021 A 
ATOM      7  C14 <0> d   1      -0.478  12.005  -0.332  0.00  0.00     0.044 A 
ATOM      8  C15 <0> d   1      -1.081  11.698   0.883  0.00  0.00     0.143 A 
ATOM      9  C16 <0> d   1      -1.171  10.380   1.313  0.00  0.00     0.137 A 
ATOM     10  C17 <0> d   1      -0.654   9.355   0.524  0.00  0.00     0.126 A 
ATOM     11  O4  <0> d   1      -0.620   8.016   0.708  0.00  0.00    -0.303 OA
ATOM     12  O6  <0> d   1      -1.587  12.694   1.656  0.00  0.00    -0.189 OA
ENDROOT
BRANCH   1  13
ATOM     13  C5  <0> d   1      -0.374   5.131   0.567  0.00  0.00    -0.031 A 
ATOM     14  C4  <0> d   1      -1.001   5.643   1.710  0.00  0.00     0.014 A 
ATOM     15  C3  <0> d   1      -1.526   4.784   2.649  0.00  0.00     0.040 A 
ATOM     16  C2  <0> d   1      -1.441   3.410   2.464  0.00  0.00     0.101 A 
ATOM     17  C7  <0> d   1      -0.814   2.892   1.331  0.00  0.00     0.102 A 
ATOM     18  C6  <0> d   1      -0.284   3.746   0.384  0.00  0.00     0.051 A 
BRANCH  16  19
ATOM     19  O1  <0> d   1      -1.966   2.568   3.391  0.00  0.00    -0.353 OA
ATOM     20  C1  <0> d   1      -2.595   3.164   4.527  0.00  0.00     0.210 C 
ENDBRANCH  16  19
BRANCH  17  21
ATOM     21  O2  <0> d   1      -0.729   1.546   1.157  0.00  0.00    -0.353 OA
ATOM     22  C8  <0> d   1      -0.078   1.086  -0.030  0.00  0.00     0.210 C 
ENDBRANCH  17  21
ENDBRANCH   1  13
BRANCH   9  23
ATOM     23  O5  <0> d   1      -1.764  10.091   2.504  0.00  0.00    -0.356 OA
ATOM     24  H13 <0> d   1      -1.835   9.047   2.844  0.00  0.00     0.218 HD
ENDBRANCH   9  23
TORSDOF 4
