REMARK  6 active torsions:
REMARK  status: ('A' for Active; 'I' for Inactive)
REMARK    1  A    between atoms: O1_2  and  C2_3 
REMARK    2  A    between atoms: C6_7  and  C9_11 
REMARK    3  A    between atoms: C7_8  and  O2_9 
REMARK    4  A    between atoms: C16_19  and  C18_22 
REMARK    5  A    between atoms: C18_22  and  N1_23 
REMARK    6  A    between atoms: N2_26  and  C23_29 
ROOT
ATOM      1  C9  <0> d   1       1.339  -4.073  -2.317  0.00  0.00     0.055 C 
ATOM      2  C10 <0> d   1       1.853  -4.665  -3.426  0.00  0.00     0.128 A 
ATOM      3  C11 <0> d   1       1.879  -6.107  -3.708  0.00  0.00     0.218 A 
ATOM      4  O3  <0> d   1       1.452  -7.011  -3.011  0.00  0.00    -0.284 OA
ATOM      5  C12 <0> d   1       2.535  -6.215  -5.023  0.00  0.00     0.051 A 
ATOM      6  C13 <0> d   1       2.861  -7.298  -5.841  0.00  0.00     0.021 A 
ATOM      7  C14 <0> d   1       3.484  -7.083  -7.038  0.00  0.00     0.041 A 
ATOM      8  C15 <0> d   1       3.794  -5.787  -7.443  0.00  0.00     0.118 A 
ATOM      9  C16 <0> d   1       3.477  -4.704  -6.641  0.00  0.00     0.039 A 
ATOM     10  C17 <0> d   1       2.843  -4.904  -5.421  0.00  0.00     0.101 A 
ATOM     11  O4  <0> d   1       2.430  -4.033  -4.475  0.00  0.00    -0.305 OA
ATOM     12  O5  <0> d   1       4.413  -5.585  -8.634  0.00  0.00    -0.191 OA
ENDROOT
BRANCH   9  13
ATOM     13  C18 <0> d   1       3.819  -3.307  -7.092  0.00  0.00     0.279 C 
BRANCH  13  14
ATOM     14  N1  <0> d   1       2.698  -2.752  -7.862  0.00  0.00    -0.064 N 
ATOM     15  C22 <0> d   1       2.982  -1.352  -8.198  0.00  0.00     0.255 C 
ATOM     16  C21 <0> d   1       1.766  -0.739  -8.901  0.00  0.00     0.150 C 
ATOM     17  N2  <0> d   1       1.421  -1.582 -10.055  0.00  0.00    -0.375 N 
ATOM     18  C20 <0> d   1       1.277  -3.030  -9.838  0.00  0.00     0.150 C 
ATOM     19  C19 <0> d   1       2.516  -3.535  -9.091  0.00  0.00     0.255 C 
ATOM     20  H27 <0> d   1       1.855  -2.800  -7.308  0.00  0.00     0.280 HD
BRANCH  17  21
ATOM     21  C23 <0> d   1       1.236  -1.024 -11.324  0.00  0.00     0.069 A 
ATOM     22  C28 <0> d   1       2.313  -0.897 -12.194  0.00  0.00     0.142 A 
ATOM     23  C27 <0> d   1       2.124  -0.350 -13.450  0.00  0.00     0.044 A 
ATOM     24  F1  <0> d   1       3.541  -1.314 -11.816  0.00  0.00    -0.204 F 
ATOM     25  C26 <0> d   1       0.868   0.083 -13.835  0.00  0.00     0.003 A 
ATOM     26  C25 <0> d   1      -0.204  -0.037 -12.969  0.00  0.00     0.002 A 
ATOM     27  C24 <0> d   1      -0.023  -0.589 -11.715  0.00  0.00     0.032 A 
ENDBRANCH  17  21
ENDBRANCH  13  14
ENDBRANCH   9  13
BRANCH   1  28
ATOM     28  C6  <0> d   1       1.239  -2.611  -2.245  0.00  0.00     0.003 A 
ATOM     29  C5  <0> d   1       1.975  -1.810  -3.127  0.00  0.00     0.014 A 
ATOM     30  C4  <0> d   1       1.877  -0.438  -3.056  0.00  0.00     0.004 A 
ATOM     31  C3  <0> d   1       1.052   0.157  -2.115  0.00  0.00     0.040 A 
ATOM     32  C2  <0> d   1       0.317  -0.621  -1.235  0.00  0.00     0.102 A 
ATOM     33  C7  <0> d   1       0.408  -2.006  -1.288  0.00  0.00     0.111 A 
BRANCH  32  34
ATOM     34  O1  <0> d   1      -0.490  -0.028  -0.315  0.00  0.00    -0.353 OA
ATOM     35  C1  <0> d   1      -0.535   1.401  -0.316  0.00  0.00     0.210 C 
ENDBRANCH  32  34
BRANCH  33  36
ATOM     36  O2  <0> d   1      -0.306  -2.772  -0.423  0.00  0.00    -0.352 OA
ATOM     37  C8  <0> d   1      -1.615  -3.169  -0.837  0.00  0.00     0.210 C 
ENDBRANCH  33  36
ENDBRANCH   1  28
TORSDOF 6
