REMARK  6 active torsions:
REMARK  status: ('A' for Active; 'I' for Inactive)
REMARK    1  A    between atoms: C2_2  and  N1_3 
REMARK    2  A    between atoms: N2_6  and  C7_9 
REMARK    3  A    between atoms: C7_9  and  C8_10 
REMARK    4  A    between atoms: C8_10  and  O1_11 
REMARK    5  A    between atoms: O1_11  and  C9_12 
REMARK    6  A    between atoms: C16_20  and  C18_23 
ROOT
ATOM      1  C9  <0> d   1       1.915  -5.878  -4.108  0.00  0.00     0.071 A 
ATOM      2  C10 <0> d   1       3.050  -6.675  -3.976  0.00  0.00     0.038 A 
ATOM      3  C11 <0> d   1       2.944  -8.036  -4.016  0.00  0.00     0.021 A 
ATOM      4  C12 <0> d   1       1.693  -8.627  -4.191  0.00  0.00     0.049 A 
ATOM      5  C13 <0> d   1       0.542  -7.833  -4.332  0.00  0.00     0.091 A 
ATOM      6  C14 <0> d   1       0.666  -6.450  -4.280  0.00  0.00     0.075 A 
ATOM      7  O2  <0> d   1      -0.663  -8.407  -4.518  0.00  0.00    -0.321 OA
ATOM      8  C15 <0> d   1      -0.868  -9.703  -4.277  0.00  0.00     0.159 C 
ATOM      9  C16 <0> d   1       0.149 -10.594  -4.133  0.00  0.00     0.048 C 
ATOM     10  C17 <0> d   1       1.533 -10.093  -4.232  0.00  0.00     0.197 C 
ATOM     11  O3  <0> d   1       2.486 -10.845  -4.341  0.00  0.00    -0.286 OA
ENDROOT
BRANCH   1  12
ATOM     12  O1  <0> d   1       2.034  -4.526  -4.063  0.00  0.00    -0.349 OA
BRANCH  12  13
ATOM     13  C8  <0> d   1       3.349  -3.997  -3.884  0.00  0.00     0.203 C 
BRANCH  13  14
ATOM     14  C7  <0> d   1       3.284  -2.468  -3.858  0.00  0.00     0.261 C 
BRANCH  14  15
ATOM     15  N2  <0> d   1       2.497  -2.031  -2.698  0.00  0.00    -0.066 N 
ATOM     16  C4  <0> d   1       3.207  -2.387  -1.462  0.00  0.00     0.265 C 
ATOM     17  C3  <0> d   1       2.378  -1.949  -0.253  0.00  0.00     0.300 C 
ATOM     18  N1  <0> d   1       2.161  -0.497  -0.312  0.00  0.00     0.091 N 
ATOM     19  C6  <0> d   1       1.473  -0.122  -1.555  0.00  0.00     0.300 C 
ATOM     20  C5  <0> d   1       2.309  -0.575  -2.754  0.00  0.00     0.265 C 
ATOM     21  H26 <0> d   1       1.597  -2.487  -2.712  0.00  0.00     0.280 HD
BRANCH  18  22
ATOM     22  C2  <0> d   1       1.416  -0.028   0.864  0.00  0.00     0.268 C 
ATOM     23  C1  <0> d   1       2.274  -0.211   2.118  0.00  0.00     0.037 C 
ENDBRANCH  18  22
ENDBRANCH  14  15
ENDBRANCH  13  14
ENDBRANCH  12  13
ENDBRANCH   1  12
BRANCH   9  24
ATOM     24  C18 <0> d   1      -0.126 -12.030  -3.884  0.00  0.00    -0.020 A 
ATOM     25  C23 <0> d   1      -0.767 -12.798  -4.854  0.00  0.00     0.014 A 
ATOM     26  C22 <0> d   1      -1.015 -14.135  -4.619  0.00  0.00     0.020 A 
ATOM     27  C21 <0> d   1      -0.640 -14.710  -3.417  0.00  0.00     0.011 A 
ATOM     28  C20 <0> d   1      -0.009 -13.950  -2.448  0.00  0.00     0.020 A 
ATOM     29 Br1  <0> d   1      -0.991 -16.541  -3.099  0.00  0.00    -0.051 Br
ATOM     30  C19 <0> d   1       0.250 -12.614  -2.675  0.00  0.00     0.014 A 
ENDBRANCH   9  24
TORSDOF 6
