REMARK  8 active torsions:
REMARK  status: ('A' for Active; 'I' for Inactive)
REMARK    1  A    between atoms: C4_4  and  C7_7 
REMARK    2  A    between atoms: C11_12  and  O3_18 
REMARK    3  A    between atoms: O3_18  and  C16_19 
REMARK    4  A    between atoms: C16_19  and  C17_20 
REMARK    5  A    between atoms: C17_20  and  N1_21 
REMARK    6  A    between atoms: N2_24  and  C22_27 
REMARK    7  A    between atoms: C22_27  and  C23_28 
REMARK    8  A    between atoms: C23_28  and  O4_29 
ROOT
ATOM      1  C7  <0> d   1       0.654  -1.965   0.466  0.00  0.00     0.048 A 
ATOM      2  C8  <0> d   1       0.091  -2.766   1.407  0.00  0.00     0.159 A 
ATOM      3  O1  <0> d   1       0.184  -4.097   1.366  0.00  0.00    -0.321 OA
ATOM      4  C9  <0> d   1       0.838  -4.764   0.394  0.00  0.00     0.091 A 
ATOM      5  C10 <0> d   1       0.898  -6.151   0.407  0.00  0.00     0.075 A 
ATOM      6  C11 <0> d   1       1.573  -6.820  -0.599  0.00  0.00     0.071 A 
ATOM      7  C12 <0> d   1       2.196  -6.114  -1.627  0.00  0.00     0.038 A 
ATOM      8  C13 <0> d   1       2.146  -4.750  -1.654  0.00  0.00     0.021 A 
ATOM      9  C14 <0> d   1       1.469  -4.061  -0.647  0.00  0.00     0.049 A 
ATOM     10  C15 <0> d   1       1.389  -2.589  -0.647  0.00  0.00     0.197 A 
ATOM     11  O2  <0> d   1       1.911  -1.921  -1.523  0.00  0.00    -0.286 OA
ENDROOT
BRANCH   6  12
ATOM     12  O3  <0> d   1       1.630  -8.177  -0.585  0.00  0.00    -0.349 OA
BRANCH  12  13
ATOM     13  C16 <0> d   1       2.342  -8.808  -1.651  0.00  0.00     0.206 C 
BRANCH  13  14
ATOM     14  C17 <0> d   1       2.297 -10.326  -1.466  0.00  0.00     0.299 C 
BRANCH  14  15
ATOM     15  N1  <0> d   1       0.911 -10.794  -1.595  0.00  0.00     0.093 N 
ATOM     16  C21 <0> d   1       0.490 -10.810  -3.003  0.00  0.00     0.300 C 
ATOM     17  C20 <0> d   1      -0.980 -11.227  -3.088  0.00  0.00     0.265 C 
ATOM     18  N2  <0> d   1      -1.147 -12.553  -2.476  0.00  0.00    -0.066 N 
ATOM     19  C19 <0> d   1      -0.726 -12.537  -1.068  0.00  0.00     0.265 C 
ATOM     20  H27 <0> d   1      -0.501 -13.260  -3.016  0.00  0.00     0.280 HD
ATOM     21  C18 <0> d   1       0.744 -12.120  -0.983  0.00  0.00     0.300 C 
BRANCH  18  22
ATOM     22  C22 <0> d   1      -2.534 -13.021  -2.606  0.00  0.00     0.260 C 
BRANCH  22  23
ATOM     23  C23 <0> d   1      -2.782 -13.488  -4.041  0.00  0.00     0.192 C 
BRANCH  23  24
ATOM     24  O4  <0> d   1      -1.970 -14.632  -4.317  0.00  0.00    -0.399 OA
ATOM     25  H26 <0> d   1      -2.014 -15.111  -5.307  0.00  0.00     0.209 HD
ENDBRANCH  23  24
ENDBRANCH  22  23
ENDBRANCH  18  22
ENDBRANCH  14  15
ENDBRANCH  13  14
ENDBRANCH  12  13
ENDBRANCH   6  12
BRANCH   1  26
ATOM     26  C4  <0> d   1       0.525  -0.490   0.553  0.00  0.00    -0.020 A 
ATOM     27  C3  <0> d   1      -0.726   0.093   0.749  0.00  0.00     0.012 A 
ATOM     28  C2  <0> d   1      -0.840   1.466   0.829  0.00  0.00     0.001 A 
ATOM     29  C1  <0> d   1       0.284   2.264   0.716  0.00  0.00     0.000 A 
ATOM     30  C6  <0> d   1       1.528   1.691   0.522  0.00  0.00     0.001 A 
ATOM     31  C5  <0> d   1       1.654   0.319   0.440  0.00  0.00     0.012 A 
ENDBRANCH   1  26
TORSDOF 8
