REMARK  5 active torsions:
REMARK  status: ('A' for Active; 'I' for Inactive)
REMARK    1  A    between atoms: C2_2  and  N1_3 
REMARK    2  A    between atoms: C4_5  and  C11_12 
REMARK    3  A    between atoms: C17_19  and  O3_31 
REMARK    4  A    between atoms: C18_20  and  C20_23 
REMARK    5  A    between atoms: C20_23  and  N2_24 
ROOT
ATOM      1  C11 <0> d   1       4.668   2.814  -0.026  0.00  0.00     0.055 C 
ATOM      2  C12 <0> d   1       3.307   2.879  -0.014  0.00  0.00     0.128 A 
ATOM      3  C13 <0> d   1       2.533   4.069  -0.001  0.00  0.00     0.218 A 
ATOM      4  O1  <0> d   1       2.942   5.219   0.001  0.00  0.00    -0.284 OA
ATOM      5  C14 <0> d   1       1.131   3.618   0.010  0.00  0.00     0.051 A 
ATOM      6  C15 <0> d   1      -0.093   4.286   0.025  0.00  0.00     0.021 A 
ATOM      7  C16 <0> d   1      -1.258   3.572   0.032  0.00  0.00     0.038 A 
ATOM      8  C17 <0> d   1      -1.227   2.180   0.020  0.00  0.00     0.076 A 
ATOM      9  C18 <0> d   1      -0.018   1.503   0.010  0.00  0.00     0.036 A 
ATOM     10  C19 <0> d   1       1.174   2.214   0.003  0.00  0.00     0.101 A 
ATOM     11  O2  <0> d   1       2.465   1.819  -0.011  0.00  0.00    -0.305 OA
ENDROOT
BRANCH   1  12
ATOM     12  C4  <0> d   1       5.338   1.515  -0.039  0.00  0.00    -0.005 A 
ATOM     13  C3  <0> d   1       4.737   0.275  -0.034  0.00  0.00     0.103 A 
ATOM     14  N1  <0> d   1       5.690  -0.689  -0.054  0.00  0.00    -0.356 N 
ATOM     15  C6  <0> d   1       6.950  -0.126  -0.062  0.00  0.00     0.045 A 
ATOM     16  C5  <0> d   1       6.793   1.270  -0.054  0.00  0.00     0.002 A 
ATOM     17  C7  <0> d   1       8.231  -0.667  -0.076  0.00  0.00     0.030 A 
ATOM     18  C10 <0> d   1       7.912   2.098  -0.059  0.00  0.00     0.014 A 
ATOM     19  C9  <0> d   1       9.173   1.543  -0.074  0.00  0.00     0.001 A 
ATOM     20  C8  <0> d   1       9.330   0.165  -0.082  0.00  0.00     0.002 A 
BRANCH  14  21
ATOM     21  C2  <0> d   1       5.420  -2.129  -0.058  0.00  0.00     0.124 C 
ATOM     22  C1  <0> d   1       5.462  -2.660   1.376  0.00  0.00     0.027 C 
ENDBRANCH  14  21
ENDBRANCH   1  12
BRANCH   9  23
ATOM     23  C20 <0> d   1       0.002  -0.004   0.002  0.00  0.00     0.279 C 
BRANCH  23  24
ATOM     24  N2  <0> d   1       0.022  -0.501   1.384  0.00  0.00    -0.063 N 
ATOM     25  C25 <0> d   1      -0.196  -1.953   1.425  0.00  0.00     0.184 C 
ATOM     26  C24 <0> d   1      -0.025  -2.456   2.860  0.00  0.00     0.033 C 
ATOM     27  C26 <0> d   1       0.821  -2.647   0.516  0.00  0.00     0.040 C 
ATOM     28  C23 <0> d   1      -1.031  -1.744   3.768  0.00  0.00     0.004 C 
ATOM     29  C22 <0> d   1      -0.814  -0.232   3.671  0.00  0.00     0.028 C 
ATOM     30  C21 <0> d   1      -0.963   0.207   2.212  0.00  0.00     0.235 C 
ATOM     31  H28 <0> d   1       1.019  -0.300   1.803  0.00  0.00     0.280 HD
ENDBRANCH  23  24
ENDBRANCH   9  23
BRANCH   8  32
ATOM     32  O3  <0> d   1      -2.390   1.481   0.021  0.00  0.00    -0.360 OA
ATOM     33  H29 <0> d   1      -2.371   0.381   0.012  0.00  0.00     0.217 HD
ENDBRANCH   8  32
TORSDOF 5
