REMARK  9 active torsions:
REMARK  status: ('A' for Active; 'I' for Inactive)
REMARK    1  A    between atoms: C2_2  and  O1_3 
REMARK    2  A    between atoms: O1_3  and  C3_4 
REMARK    3  A    between atoms: C3_4  and  C4_6 
REMARK    4  A    between atoms: C7_9  and  O3_12 
REMARK    5  A    between atoms: O3_12  and  C10_13 
REMARK    6  A    between atoms: C10_13  and  C11_14 
REMARK    7  A    between atoms: C15_18  and  O5_27 
REMARK    8  A    between atoms: C16_19  and  C18_23 
REMARK    9  A    between atoms: C18_23  and  N2_24 
ROOT
ATOM      1  C11 <0> d   1       2.143   0.834  -0.014  0.00  0.00     0.099 A 
ATOM      2  C12 <0> d   1       1.351  -0.399  -0.013  0.00  0.00     0.030 A 
ATOM      3  C13 <0> d   1       1.680  -1.757  -0.024  0.00  0.00     0.019 A 
ATOM      4  C14 <0> d   1       0.690  -2.697  -0.019  0.00  0.00     0.038 A 
ATOM      5  C15 <0> d   1      -0.649  -2.311  -0.004  0.00  0.00     0.076 A 
ATOM      6  C16 <0> d   1      -0.994  -0.972   0.006  0.00  0.00     0.038 A 
ATOM      7  C17 <0> d   1       0.002  -0.004   0.002  0.00  0.00     0.124 A 
ATOM      8  O4  <0> d   1      -0.016   1.344   0.009  0.00  0.00    -0.212 OA
ATOM      9  N1  <0> d   1       1.311   1.830  -0.001  0.00  0.00    -0.129 NA
ENDROOT
BRANCH   1  10
ATOM     10  C10 <0> d   1       3.647   0.927  -0.027  0.00  0.00     0.238 C 
BRANCH  10  11
ATOM     11  O3  <0> d   1       4.110   0.964  -1.379  0.00  0.00    -0.345 OA
BRANCH  11  12
ATOM     12  C7  <0> d   1       5.450   1.048  -1.569  0.00  0.00     0.069 A 
ATOM     13  C6  <0> d   1       5.967   1.088  -2.859  0.00  0.00     0.038 A 
ATOM     14  C5  <0> d   1       7.327   1.173  -3.056  0.00  0.00     0.020 A 
ATOM     15  C4  <0> d   1       8.189   1.221  -1.956  0.00  0.00     0.039 A 
ATOM     16  C9  <0> d   1       7.665   1.181  -0.660  0.00  0.00     0.020 A 
ATOM     17  C8  <0> d   1       6.304   1.101  -0.472  0.00  0.00     0.038 A 
BRANCH  15  18
ATOM     18  C3  <0> d   1       9.646   1.312  -2.162  0.00  0.00     0.293 C 
ATOM     19  O2  <0> d   1      10.099   1.346  -3.289  0.00  0.00    -0.259 OA
BRANCH  18  20
ATOM     20  O1  <0> d   1      10.475   1.358  -1.101  0.00  0.00    -0.318 OA
BRANCH  20  21
ATOM     21  C2  <0> d   1      11.897   1.448  -1.379  0.00  0.00     0.174 C 
ATOM     22  C1  <0> d   1      12.673   1.489  -0.061  0.00  0.00     0.034 C 
ENDBRANCH  20  21
ENDBRANCH  18  20
ENDBRANCH  15  18
ENDBRANCH  11  12
ENDBRANCH  10  11
ENDBRANCH   1  10
BRANCH   6  23
ATOM     23  C18 <0> d   1      -2.444  -0.564   0.022  0.00  0.00     0.278 C 
BRANCH  23  24
ATOM     24  N2  <0> d   1      -2.929  -0.424  -1.358  0.00  0.00    -0.075 N 
ATOM     25  C19 <0> d   1      -4.388  -0.261  -1.389  0.00  0.00     0.269 C 
ATOM     26  C20 <0> d   1      -2.259   0.691  -2.040  0.00  0.00     0.269 C 
ATOM     27  H22 <0> d   1      -2.680  -1.349  -1.898  0.00  0.00     0.279 HD
ENDBRANCH  23  24
ENDBRANCH   6  23
BRANCH   5  28
ATOM     28  O5  <0> d   1      -1.623  -3.258  -0.000  0.00  0.00    -0.360 OA
ATOM     29  H23 <0> d   1      -2.682  -2.958   0.011  0.00  0.00     0.217 HD
ENDBRANCH   5  28
TORSDOF 9
