REMARK  3 active torsions:
REMARK  status: ('A' for Active; 'I' for Inactive)
REMARK    1  A    between atoms: C9_10  and  C10_11 
REMARK    2  A    between atoms: N1_21  and  C19_24 
REMARK    3  A    between atoms: C19_24  and  C20_25 
ROOT
ATOM      1  C1  <0> d   1       0.074   1.497   0.006  0.00  0.00     0.054 C 
ATOM      2  C2  <0> d   1       0.088  -0.010   0.000  0.00  0.00     0.007 A 
ATOM      3  C3  <0> d   1       0.109  -0.697  -1.206  0.00  0.00     0.087 A 
ATOM      4  C4  <0> d   1       0.124  -2.088  -1.224  0.00  0.00     0.005 A 
ATOM      5  C5  <0> d   1       0.114  -2.789  -0.049  0.00  0.00     0.030 A 
ATOM      6  C6  <0> d   1       0.092  -2.111   1.169  0.00  0.00     0.052 A 
ATOM      7  C7  <0> d   1       0.085  -0.707   1.201  0.00  0.00     0.099 A 
ATOM      8  O1  <0> d   1       0.073  -0.280   2.482  0.00  0.00    -0.305 OA
ATOM      9  C8  <0> d   1       0.074  -1.313   3.357  0.00  0.00     0.127 A 
ATOM     10  C9  <0> d   1       0.062  -1.217   4.711  0.00  0.00     0.053 C 
ATOM     11  C16 <0> d   1       0.077  -2.558   2.574  0.00  0.00     0.218 A 
ATOM     12  O2  <0> d   1       0.080  -3.703   2.993  0.00  0.00    -0.284 OA
ATOM     13  C17 <0> d   1       0.154  -2.842  -2.529  0.00  0.00     0.317 C 
ATOM     14  N1  <0> d   1      -0.252  -1.949  -3.623  0.00  0.00     0.121 N 
ATOM     15  C18 <0> d   1       0.501  -0.686  -3.553  0.00  0.00     0.448 C 
ATOM     16  O3  <0> d   1       0.114   0.011  -2.366  0.00  0.00    -0.320 OA
ENDROOT
BRANCH  10  17
ATOM     17  C10 <0> d   1       0.163   0.099   5.355  0.00  0.00    -0.033 A 
ATOM     18  C15 <0> d   1       0.142   1.265   4.580  0.00  0.00     0.014 A 
ATOM     19  C14 <0> d   1       0.231   2.496   5.191  0.00  0.00     0.043 A 
ATOM     20  C13 <0> d   1       0.353   2.583   6.570  0.00  0.00     0.116 A 
ATOM     21  C12 <0> d   1       0.379   1.432   7.344  0.00  0.00     0.043 A 
ATOM     22  F1  <0> d   1       0.446   3.793   7.162  0.00  0.00    -0.206 F 
ATOM     23  C11 <0> d   1       0.285   0.194   6.746  0.00  0.00     0.014 A 
ENDBRANCH  10  17
BRANCH  14  24
ATOM     24  C19 <0> d   1      -0.069  -2.599  -4.928  0.00  0.00     0.332 C 
BRANCH  24  25
ATOM     25  C20 <0> d   1      -0.717  -1.762  -6.001  0.00  0.00     0.037 A 
ATOM     26  N2  <0> d   1      -0.047  -0.764  -6.542  0.00  0.00    -0.368 N 
ATOM     27  C24 <0> d   1      -0.571  -0.008  -7.488  0.00  0.00     0.088 A 
ATOM     28  H20 <0> d   1       0.857  -0.583  -6.240  0.00  0.00     0.165 HD
ATOM     29  C23 <0> d   1      -1.858  -0.232  -7.939  0.00  0.00     0.017 A 
ATOM     30  C22 <0> d   1      -2.596  -1.270  -7.389  0.00  0.00     0.003 A 
ATOM     31  C21 <0> d   1      -2.009  -2.046  -6.402  0.00  0.00     0.027 A 
ENDBRANCH  24  25
ENDBRANCH  14  24
TORSDOF 3
