REMARK  8 active torsions:
REMARK  status: ('A' for Active; 'I' for Inactive)
REMARK    1  A    between atoms: C2_2  and  O1_3 
REMARK    2  A    between atoms: O1_3  and  C3_4 
REMARK    3  A    between atoms: C5_6  and  O2_7 
REMARK    4  A    between atoms: C6_8  and  C7_9 
REMARK    5  A    between atoms: C8_10  and  O3_16 
REMARK    6  A    between atoms: C10_13  and  N3_15 
REMARK    7  A    between atoms: O3_16  and  C11_17 
REMARK    8  A    between atoms: C15_21  and  O4_23 
ROOT
ATOM      1  C7  <0> d   1       1.138  -6.044   1.751  0.00  0.00     0.124 A 
ATOM      2  C8  <0> d   1       0.519  -6.907   0.835  0.00  0.00     0.124 A 
ATOM      3  C9  <0> d   1       0.684  -8.274   1.003  0.00  0.00     0.176 A 
ATOM      4  N1  <0> d   1       1.415  -8.718   2.015  0.00  0.00    -0.073 NA
ATOM      5  C10 <0> d   1       1.987  -7.878   2.864  0.00  0.00     0.720 A 
ATOM      6  N2  <0> d   1       1.861  -6.566   2.740  0.00  0.00    -0.060 NA
ENDROOT
BRANCH   1   7
ATOM      7  C6  <0> d   1       0.995  -4.577   1.617  0.00  0.00     0.029 A 
ATOM      8  C5  <0> d   1       0.650  -3.800   2.731  0.00  0.00     0.081 A 
ATOM      9  C4  <0> d   1       0.518  -2.429   2.598  0.00  0.00     0.074 A 
ATOM     10  C3  <0> d   1       0.726  -1.827   1.366  0.00  0.00     0.071 A 
ATOM     11  C19 <0> d   1       1.062  -2.598   0.260  0.00  0.00     0.038 A 
ATOM     12  C18 <0> d   1       1.202  -3.963   0.382  0.00  0.00     0.019 A 
BRANCH   8  13
ATOM     13  O2  <0> d   1       0.447  -4.391   3.936  0.00  0.00    -0.360 OA
ATOM     14  H19 <0> d   1      -0.468  -4.664   4.091  0.00  0.00     0.217 HD
ENDBRANCH   8  13
BRANCH  10  15
ATOM     15  O1  <0> d   1       0.595  -0.481   1.239  0.00  0.00    -0.351 OA
BRANCH  15  16
ATOM     16  C2  <0> d   1       0.817   0.073  -0.059  0.00  0.00     0.171 C 
ATOM     17  C1  <0> d   1       0.625   1.590  -0.006  0.00  0.00     0.034 C 
ENDBRANCH  15  16
ENDBRANCH  10  15
ENDBRANCH   1   7
BRANCH   2  18
ATOM     18  O3  <0> d   1      -0.224  -6.416  -0.193  0.00  0.00    -0.307 OA
BRANCH  18  19
ATOM     19  C11 <0> d   1      -0.895  -7.302  -0.975  0.00  0.00     0.079 A 
ATOM     20  C16 <0> d   1      -0.419  -7.610  -2.240  0.00  0.00     0.074 A 
ATOM     21  C15 <0> d   1      -1.102  -8.519  -3.033  0.00  0.00     0.070 A 
ATOM     22  C14 <0> d   1      -2.267  -9.109  -2.564  0.00  0.00     0.037 A 
ATOM     23  C13 <0> d   1      -2.743  -8.796  -1.305  0.00  0.00     0.005 A 
ATOM     24  C12 <0> d   1      -2.061  -7.895  -0.510  0.00  0.00     0.037 A 
BRANCH  21  25
ATOM     25  O4  <0> d   1      -0.634  -8.827  -4.271  0.00  0.00    -0.356 OA
ATOM     26  C17 <0> d   1      -1.393  -9.767  -5.036  0.00  0.00     0.210 C 
ENDBRANCH  21  25
ENDBRANCH  18  19
ENDBRANCH   2  18
BRANCH   5  27
ATOM     27  N3  <0> d   1       2.743  -8.387   3.909  0.00  0.00    -0.231 N 
ATOM     28  H8  <0> d   1       2.847  -9.346   4.010  0.00  0.00     0.174 HD
ATOM     29  H9  <0> d   1       3.168  -7.784   4.539  0.00  0.00     0.174 HD
ENDBRANCH   5  27
TORSDOF 8
