REMARK  6 active torsions:
REMARK  status: ('A' for Active; 'I' for Inactive)
REMARK    1  A    between atoms: C7_7  and  O1_8 
REMARK    2  A    between atoms: C8_9  and  C11_14 
REMARK    3  A    between atoms: C11_14  and  N1_15 
REMARK    4  A    between atoms: N2_18  and  C16_21 
REMARK    5  A    between atoms: C16_21  and  C17_22 
REMARK    6  A    between atoms: C17_22  and  O4_23 
ROOT
ATOM      1  C1  <0> d   1       3.030   7.663   4.403  0.00  0.00     0.051 C 
ATOM      2  C2  <0> d   1       1.965   6.630   4.140  0.00  0.00    -0.026 A 
ATOM      3  C3  <0> d   1       1.786   5.592   5.030  0.00  0.00     0.047 A 
ATOM      4  C4  <0> d   1       0.806   4.636   4.795  0.00  0.00     0.091 A 
ATOM      5  C5  <0> d   1       0.002   4.736   3.646  0.00  0.00     0.009 A 
ATOM      6  C6  <0> d   1       0.191   5.792   2.750  0.00  0.00     0.052 A 
ATOM      7  C7  <0> d   1       1.171   6.733   3.002  0.00  0.00     0.072 A 
ATOM      8  C8  <0> d   1      -1.029   3.720   3.409  0.00  0.00    -0.011 A 
ATOM      9  C9  <0> d   1      -1.167   2.723   4.319  0.00  0.00     0.092 A 
ATOM     10  C10 <0> d   1      -0.321   2.681   5.448  0.00  0.00     0.288 A 
ATOM     11  O2  <0> d   1      -0.451   1.778   6.255  0.00  0.00    -0.260 OA
ATOM     12  O3  <0> d   1       0.620   3.614   5.659  0.00  0.00    -0.275 OA
ENDROOT
BRANCH   8  13
ATOM     13  C11 <0> d   1      -1.915   3.786   2.192  0.00  0.00     0.312 C 
BRANCH  13  14
ATOM     14  N1  <0> d   1      -1.189   3.256   1.030  0.00  0.00     0.096 N 
ATOM     15  C15 <0> d   1      -1.925   3.519  -0.215  0.00  0.00     0.303 C 
ATOM     16  C14 <0> d   1      -1.102   3.023  -1.406  0.00  0.00     0.302 C 
ATOM     17  N2  <0> d   1      -0.834   1.587  -1.249  0.00  0.00     0.093 N 
ATOM     18  C13 <0> d   1      -0.098   1.324  -0.005  0.00  0.00     0.302 C 
ATOM     19  C12 <0> d   1      -0.921   1.819   1.187  0.00  0.00     0.303 C 
BRANCH  17  20
ATOM     20  C16 <0> d   1      -0.109   1.057  -2.412  0.00  0.00     0.298 C 
BRANCH  20  21
ATOM     21  C17 <0> d   1      -0.268  -0.464  -2.462  0.00  0.00     0.194 C 
BRANCH  21  22
ATOM     22  O4  <0> d   1      -1.641  -0.792  -2.682  0.00  0.00    -0.399 OA
ATOM     23  H22 <0> d   1      -1.951  -1.846  -2.748  0.00  0.00     0.209 HD
ENDBRANCH  21  22
ENDBRANCH  20  21
ENDBRANCH  17  20
ENDBRANCH  13  14
ENDBRANCH   8  13
BRANCH   7  24
ATOM     24  O1  <0> d   1       1.360   7.762   2.135  0.00  0.00    -0.360 OA
ATOM     25  H6  <0> d   1       0.733   7.845   1.234  0.00  0.00     0.217 HD
ENDBRANCH   7  24
TORSDOF 6
