REMARK  6 active torsions:
REMARK  status: ('A' for Active; 'I' for Inactive)
REMARK    1  A    between atoms: C5_5  and  C7_7 
REMARK    2  A    between atoms: C14_15  and  C16_18 
REMARK    3  A    between atoms: C16_18  and  N1_19 
REMARK    4  A    between atoms: N2_22  and  C21_25 
REMARK    5  A    between atoms: C21_25  and  C22_26 
REMARK    6  A    between atoms: C22_26  and  O3_27 
ROOT
ATOM      1  C7  <0> d   1       4.283   3.941   8.302  0.00  0.00     0.054 C 
ATOM      2  C8  <0> d   1       3.857   4.597   7.194  0.00  0.00     0.128 A 
ATOM      3  C9  <0> d   1       3.510   6.025   7.109  0.00  0.00     0.218 A 
ATOM      4  O1  <0> d   1       3.542   6.855   8.001  0.00  0.00    -0.284 OA
ATOM      5  C10 <0> d   1       3.114   6.225   5.703  0.00  0.00     0.051 A 
ATOM      6  C11 <0> d   1       2.680   7.340   4.984  0.00  0.00     0.021 A 
ATOM      7  C12 <0> d   1       2.377   7.218   3.657  0.00  0.00     0.041 A 
ATOM      8  C13 <0> d   1       2.506   5.986   3.021  0.00  0.00     0.118 A 
ATOM      9  C14 <0> d   1       2.930   4.870   3.724  0.00  0.00     0.039 A 
ATOM     10  C15 <0> d   1       3.242   4.977   5.074  0.00  0.00     0.101 A 
ATOM     11  O2  <0> d   1       3.674   4.059   5.966  0.00  0.00    -0.305 OA
ATOM     12  O4  <0> d   1       2.208   5.876   1.701  0.00  0.00    -0.191 OA
ENDROOT
BRANCH   9  13
ATOM     13  C16 <0> d   1       3.058   3.542   3.024  0.00  0.00     0.279 C 
BRANCH  13  14
ATOM     14  N1  <0> d   1       1.788   2.811   3.124  0.00  0.00    -0.064 N 
ATOM     15  C20 <0> d   1       1.941   1.423   2.664  0.00  0.00     0.265 C 
ATOM     16  C19 <0> d   1       0.620   0.676   2.858  0.00  0.00     0.300 C 
ATOM     17  N2  <0> d   1      -0.442   1.361   2.109  0.00  0.00     0.093 N 
ATOM     18  C18 <0> d   1      -0.596   2.749   2.568  0.00  0.00     0.300 C 
ATOM     19  C17 <0> d   1       0.726   3.496   2.374  0.00  0.00     0.265 C 
ATOM     20  H23 <0> d   1       1.495   2.787   4.184  0.00  0.00     0.280 HD
BRANCH  17  21
ATOM     21  C21 <0> d   1      -1.712   0.630   2.208  0.00  0.00     0.298 C 
BRANCH  21  22
ATOM     22  C22 <0> d   1      -2.650   1.081   1.086  0.00  0.00     0.194 C 
BRANCH  22  23
ATOM     23  O3  <0> d   1      -2.104   0.691  -0.176  0.00  0.00    -0.399 OA
ATOM     24  H22 <0> d   1      -2.642   0.931  -1.105  0.00  0.00     0.209 HD
ENDBRANCH  22  23
ENDBRANCH  21  22
ENDBRANCH  17  21
ENDBRANCH  13  14
ENDBRANCH   9  13
BRANCH   1  25
ATOM     25  C5  <0> d   1       4.720   2.541   8.204  0.00  0.00    -0.016 A 
ATOM     26  C4  <0> d   1       4.830   1.755   9.358  0.00  0.00     0.021 A 
ATOM     27  C3  <0> d   1       5.237   0.441   9.256  0.00  0.00     0.020 A 
ATOM     28 Br1  <0> d   1       4.417   2.492  11.050  0.00  0.00    -0.050 Br
ATOM     29  C2  <0> d   1       5.544  -0.098   8.019  0.00  0.00     0.001 A 
ATOM     30  C1  <0> d   1       5.443   0.674   6.874  0.00  0.00     0.001 A 
ATOM     31  C6  <0> d   1       5.034   1.988   6.957  0.00  0.00     0.013 A 
ENDBRANCH   1  25
TORSDOF 6
