REMARK  8 active torsions:
REMARK  status: ('A' for Active; 'I' for Inactive)
REMARK    1  A    between atoms: O1_2  and  C2_3 
REMARK    2  A    between atoms: C2_3  and  C3_5 
REMARK    3  A    between atoms: C6_8  and  C9_11 
REMARK    4  A    between atoms: C16_19  and  C18_22 
REMARK    5  A    between atoms: C18_22  and  N1_23 
REMARK    6  A    between atoms: N2_26  and  C23_29 
REMARK    7  A    between atoms: C23_29  and  C24_30 
REMARK    8  A    between atoms: C24_30  and  O5_31 
ROOT
ATOM      1  C9  <0> d   1      -1.412  -6.344  -0.020  0.00  0.00     0.053 C 
ATOM      2  C10 <0> d   1      -2.606  -6.977   0.085  0.00  0.00     0.127 A 
ATOM      3  C11 <0> d   1      -2.815  -8.432   0.201  0.00  0.00     0.218 A 
ATOM      4  O3  <0> d   1      -1.968  -9.308   0.223  0.00  0.00    -0.284 OA
ATOM      5  C12 <0> d   1      -4.278  -8.589   0.285  0.00  0.00     0.051 A 
ATOM      6  C13 <0> d   1      -5.113  -9.700   0.407  0.00  0.00     0.021 A 
ATOM      7  C14 <0> d   1      -6.468  -9.531   0.462  0.00  0.00     0.041 A 
ATOM      8  C15 <0> d   1      -7.016  -8.253   0.397  0.00  0.00     0.118 A 
ATOM      9  C16 <0> d   1      -6.199  -7.141   0.276  0.00  0.00     0.039 A 
ATOM     10  C17 <0> d   1      -4.819  -7.295   0.218  0.00  0.00     0.101 A 
ATOM     11  O4  <0> d   1      -3.824  -6.388   0.108  0.00  0.00    -0.305 OA
ATOM     12  O6  <0> d   1      -8.363  -8.095   0.452  0.00  0.00    -0.191 OA
ENDROOT
BRANCH   9  13
ATOM     13  C18 <0> d   1      -6.806  -5.763   0.206  0.00  0.00     0.279 C 
BRANCH  13  14
ATOM     14  N1  <0> d   1      -6.935  -5.216   1.563  0.00  0.00    -0.064 N 
ATOM     15  C22 <0> d   1      -7.415  -3.829   1.488  0.00  0.00     0.265 C 
ATOM     16  C21 <0> d   1      -7.532  -3.253   2.901  0.00  0.00     0.300 C 
ATOM     17  N2  <0> d   1      -8.467  -4.071   3.685  0.00  0.00     0.093 N 
ATOM     18  C20 <0> d   1      -8.012  -5.467   3.748  0.00  0.00     0.300 C 
ATOM     19  C19 <0> d   1      -7.892  -6.026   2.329  0.00  0.00     0.265 C 
ATOM     20  H26 <0> d   1      -6.036  -5.236   2.021  0.00  0.00     0.280 HD
BRANCH  17  21
ATOM     21  C23 <0> d   1      -8.649  -3.516   5.033  0.00  0.00     0.298 C 
BRANCH  21  22
ATOM     22  C24 <0> d   1      -9.354  -2.161   4.935  0.00  0.00     0.194 C 
BRANCH  22  23
ATOM     23  O5  <0> d   1     -10.674  -2.347   4.420  0.00  0.00    -0.399 OA
ATOM     24  H25 <0> d   1     -11.180  -1.528   4.331  0.00  0.00     0.209 HD
ENDBRANCH  22  23
ENDBRANCH  21  22
ENDBRANCH  17  21
ENDBRANCH  13  14
ENDBRANCH   9  13
BRANCH   1  25
ATOM     25  C6  <0> d   1      -1.354  -4.876  -0.007  0.00  0.00    -0.033 A 
ATOM     26  C5  <0> d   1      -2.538  -4.128  -0.016  0.00  0.00     0.012 A 
ATOM     27  C4  <0> d   1      -2.483  -2.758  -0.004  0.00  0.00     0.018 A 
ATOM     28  C3  <0> d   1      -1.246  -2.108   0.019  0.00  0.00     0.039 A 
ATOM     29  C8  <0> d   1      -0.063  -2.853   0.022  0.00  0.00     0.018 A 
ATOM     30  C7  <0> d   1      -0.116  -4.223   0.015  0.00  0.00     0.012 A 
BRANCH  28  31
ATOM     31  C2  <0> d   1      -1.188  -0.632   0.033  0.00  0.00     0.292 C 
ATOM     32  O2  <0> d   1      -0.113  -0.067   0.048  0.00  0.00    -0.259 OA
BRANCH  31  33
ATOM     33  O1  <0> d   1      -2.328   0.086   0.030  0.00  0.00    -0.323 OA
ATOM     34  C1  <0> d   1      -2.197   1.510   0.044  0.00  0.00     0.213 C 
ENDBRANCH  31  33
ENDBRANCH  28  31
ENDBRANCH   1  25
TORSDOF 8
