REMARK  4 active torsions:
REMARK  status: ('A' for Active; 'I' for Inactive)
REMARK    1  A    between atoms: C8_10  and  C9_11 
REMARK    2  A    between atoms: C14_16  and  O4_29 
REMARK    3  A    between atoms: C15_17  and  C18_22 
REMARK    4  A    between atoms: C18_22  and  N3_23 
ROOT
ATOM      1  C9  <0> d   1      -2.084   6.702   0.403  0.00  0.00     0.085 A 
ATOM      2  C10 <0> d   1      -1.251   7.799   0.526  0.00  0.00     0.035 A 
ATOM      3  C11 <0> d   1      -1.831   9.078   0.717  0.00  0.00    -0.000 A 
ATOM      4  C12 <0> d   1      -1.013  10.212   0.840  0.00  0.00     0.017 A 
ATOM      5  C13 <0> d   1      -1.574  11.439   1.029  0.00  0.00     0.038 A 
ATOM      6  C14 <0> d   1      -2.960  11.578   1.101  0.00  0.00     0.076 A 
ATOM      7  C15 <0> d   1      -3.784  10.471   0.982  0.00  0.00     0.038 A 
ATOM      8  C16 <0> d   1      -3.230   9.212   0.790  0.00  0.00     0.100 A 
ATOM      9  O1  <0> d   1      -4.036   8.135   0.674  0.00  0.00    -0.273 OA
ATOM     10  C17 <0> d   1      -3.535   6.902   0.487  0.00  0.00     0.302 A 
ATOM     11  O2  <0> d   1      -4.286   5.950   0.387  0.00  0.00    -0.259 OA
ENDROOT
BRANCH   1  12
ATOM     12  C8  <0> d   1      -1.524   5.354   0.197  0.00  0.00     0.124 A 
ATOM     13  N1  <0> d   1      -0.553   5.034  -0.715  0.00  0.00    -0.335 N 
ATOM     14  C1  <0> d   1       0.104   5.957  -1.644  0.00  0.00     0.158 C 
ATOM     15  C2  <0> d   1      -0.309   3.679  -0.594  0.00  0.00     0.062 A 
ATOM     16  C7  <0> d   1      -1.167   3.214   0.418  0.00  0.00     0.060 A 
ATOM     17  C3  <0> d   1       0.552   2.796  -1.230  0.00  0.00     0.032 A 
ATOM     18  C6  <0> d   1      -1.147   1.860   0.768  0.00  0.00     0.032 A 
ATOM     19  N2  <0> d   1      -1.880   4.279   0.860  0.00  0.00    -0.340 N 
ATOM     20  C5  <0> d   1      -0.296   1.004   0.127  0.00  0.00     0.002 A 
ATOM     21  C4  <0> d   1       0.551   1.464  -0.872  0.00  0.00     0.002 A 
ATOM     22  H22 <0> d   1      -2.623   4.149   1.660  0.00  0.00     0.167 HD
ENDBRANCH   1  12
BRANCH   7  23
ATOM     23  C18 <0> d   1      -5.280  10.632   1.062  0.00  0.00     0.317 C 
BRANCH  23  24
ATOM     24  N3  <0> d   1      -5.713  10.498   2.460  0.00  0.00     0.097 N 
ATOM     25  C22 <0> d   1      -7.123  10.882   2.614  0.00  0.00     0.299 C 
ATOM     26  C21 <0> d   1      -7.515  10.785   4.090  0.00  0.00     0.198 C 
ATOM     27  O3  <0> d   1      -7.261   9.458   4.560  0.00  0.00    -0.388 OA
ATOM     28  C20 <0> d   1      -5.896   9.052   4.426  0.00  0.00     0.198 C 
ATOM     29  C19 <0> d   1      -5.488   9.131   2.952  0.00  0.00     0.299 C 
ENDBRANCH  23  24
ENDBRANCH   7  23
BRANCH   6  30
ATOM     30  O4  <0> d   1      -3.505  12.806   1.289  0.00  0.00    -0.360 OA
ATOM     31  H21 <0> d   1      -4.598  12.920   1.347  0.00  0.00     0.217 HD
ENDBRANCH   6  30
TORSDOF 4
