REMARK  3 active torsions:
REMARK  status: ('A' for Active; 'I' for Inactive)
REMARK    1  A    between atoms: C7_7  and  C8_8 
REMARK    2  A    between atoms: C15_16  and  C17_19 
REMARK    3  A    between atoms: C17_19  and  N1_20 
ROOT
ATOM      1  C8  <0> d   1      -1.386   4.656   0.039  0.00  0.00     0.053 C 
ATOM      2  C9  <0> d   1      -0.594   3.587  -0.223  0.00  0.00     0.128 A 
ATOM      3  C10 <0> d   1       0.877   3.582  -0.263  0.00  0.00     0.218 A 
ATOM      4  O1  <0> d   1       1.631   4.520  -0.073  0.00  0.00    -0.284 OA
ATOM      5  C11 <0> d   1       1.233   2.189  -0.586  0.00  0.00     0.051 A 
ATOM      6  C12 <0> d   1       2.452   1.532  -0.766  0.00  0.00     0.021 A 
ATOM      7  C13 <0> d   1       2.469   0.200  -1.067  0.00  0.00     0.041 A 
ATOM      8  C14 <0> d   1       1.275  -0.504  -1.193  0.00  0.00     0.118 A 
ATOM      9  C15 <0> d   1       0.058   0.134  -1.016  0.00  0.00     0.041 A 
ATOM     10  C16 <0> d   1       0.022   1.489  -0.710  0.00  0.00     0.101 A 
ATOM     11  O2  <0> d   1      -1.014   2.330  -0.499  0.00  0.00    -0.305 OA
ATOM     12  O4  <0> d   1       1.302  -1.828  -1.492  0.00  0.00    -0.191 OA
ENDROOT
BRANCH   1  13
ATOM     13  C7  <0> d   1      -2.847   4.531  -0.059  0.00  0.00    -0.028 A 
ATOM     14  C2  <0> d   1      -3.647   5.676  -0.146  0.00  0.00    -0.052 A 
ATOM     15  C1  <0> d   1      -3.013   7.043  -0.139  0.00  0.00     0.049 C 
ATOM     16  C3  <0> d   1      -5.016   5.549  -0.243  0.00  0.00     0.007 A 
ATOM     17  C4  <0> d   1      -5.601   4.295  -0.244  0.00  0.00     0.001 A 
ATOM     18  C5  <0> d   1      -4.817   3.157  -0.152  0.00  0.00     0.001 A 
ATOM     19  C6  <0> d   1      -3.446   3.266  -0.060  0.00  0.00     0.012 A 
ENDBRANCH   1  13
BRANCH   9  20
ATOM     20  C17 <0> d   1      -1.227  -0.641  -1.156  0.00  0.00     0.317 C 
BRANCH  20  21
ATOM     21  N1  <0> d   1      -1.681  -0.589  -2.552  0.00  0.00     0.097 N 
ATOM     22  C21 <0> d   1      -2.794  -1.522  -2.779  0.00  0.00     0.299 C 
ATOM     23  C20 <0> d   1      -3.195  -1.479  -4.256  0.00  0.00     0.198 C 
ATOM     24  O3  <0> d   1      -3.532  -0.136  -4.615  0.00  0.00    -0.388 OA
ATOM     25  C19 <0> d   1      -2.471   0.799  -4.407  0.00  0.00     0.198 C 
ATOM     26  C18 <0> d   1      -2.062   0.779  -2.932  0.00  0.00     0.299 C 
ENDBRANCH  20  21
ENDBRANCH   9  20
TORSDOF 3
