REMARK  8 active torsions:
REMARK  status: ('A' for Active; 'I' for Inactive)
REMARK    1  A    between atoms: C3_3  and  O3_24 
REMARK    2  A    between atoms: C6_6  and  C8_9 
REMARK    3  A    between atoms: C7_7  and  O1_8 
REMARK    4  A    between atoms: C9_10  and  C12_16 
REMARK    5  A    between atoms: C15_19  and  O2_22 
REMARK    6  A    between atoms: O3_24  and  C19_25 
REMARK    7  A    between atoms: C19_25  and  C20_26 
REMARK    8  A    between atoms: C20_26  and  N3_35 
ROOT
ATOM      1  C1  <0> d   1       1.607   2.309   5.070  0.00  0.00     0.054 C 
ATOM      2  C2  <0> d   1       0.906   1.099   5.632  0.00  0.00     0.005 A 
ATOM      3  C3  <0> d   1      -0.326   0.713   5.124  0.00  0.00     0.077 A 
ATOM      4  C4  <0> d   1      -0.978  -0.398   5.642  0.00  0.00     0.038 A 
ATOM      5  C5  <0> d   1      -0.399  -1.131   6.657  0.00  0.00     0.019 A 
ATOM      6  C6  <0> d   1       0.839  -0.751   7.172  0.00  0.00     0.027 A 
ATOM      7  C7  <0> d   1       1.492   0.372   6.653  0.00  0.00     0.086 A 
ENDROOT
BRANCH   6   8
ATOM      8  C8  <0> d   1       1.461  -1.534   8.266  0.00  0.00     0.076 A 
ATOM      9  C9  <0> d   1       0.822  -1.957   9.459  0.00  0.00     0.029 A 
ATOM     10  C10 <0> d   1       1.739  -2.646  10.193  0.00  0.00     0.064 A 
ATOM     11  C11 <0> d   1       1.500  -3.290  11.535  0.00  0.00     0.073 C 
ATOM     12  N1  <0> d   1       2.901  -2.650   9.506  0.00  0.00    -0.178 NA
ATOM     13  N2  <0> d   1       2.709  -1.946   8.311  0.00  0.00    -0.276 N 
ATOM     14  H1  <0> d   1       3.404  -1.785   7.609  0.00  0.00     0.189 HD
BRANCH   9  15
ATOM     15  C12 <0> d   1      -0.589  -1.698   9.837  0.00  0.00    -0.021 A 
ATOM     16  C17 <0> d   1      -1.492  -2.755   9.935  0.00  0.00     0.015 A 
ATOM     17  C16 <0> d   1      -2.803  -2.510  10.288  0.00  0.00     0.037 A 
ATOM     18  C15 <0> d   1      -3.223  -1.212  10.545  0.00  0.00     0.068 A 
ATOM     19  C14 <0> d   1      -2.327  -0.157  10.449  0.00  0.00     0.037 A 
ATOM     20  C13 <0> d   1      -1.013  -0.396  10.102  0.00  0.00     0.015 A 
BRANCH  18  21
ATOM     21  O2  <0> d   1      -4.516  -0.975  10.893  0.00  0.00    -0.356 OA
ATOM     22  C18 <0> d   1      -4.880   0.384  11.143  0.00  0.00     0.210 C 
ENDBRANCH  18  21
ENDBRANCH   9  15
ENDBRANCH   6   8
BRANCH   7  23
ATOM     23  O1  <0> d   1       2.699   0.748   7.151  0.00  0.00    -0.359 OA
ATOM     24  H9  <0> d   1       2.644   1.368   7.891  0.00  0.00     0.217 HD
ENDBRANCH   7  23
BRANCH   3  25
ATOM     25  O3  <0> d   1      -0.899   1.428   4.121  0.00  0.00    -0.349 OA
BRANCH  25  26
ATOM     26  C19 <0> d   1      -2.169   0.976   3.645  0.00  0.00     0.203 C 
BRANCH  26  27
ATOM     27  C20 <0> d   1      -2.652   1.899   2.525  0.00  0.00     0.261 C 
BRANCH  27  28
ATOM     28  N3  <0> d   1      -1.705   1.808   1.393  0.00  0.00    -0.064 N 
ATOM     29  C21 <0> d   1      -1.871   2.976   0.500  0.00  0.00     0.266 C 
ATOM     30  C22 <0> d   1      -0.855   2.870  -0.640  0.00  0.00     0.143 C 
ATOM     31  O4  <0> d   1      -1.051   1.635  -1.335  0.00  0.00    -0.378 OA
ATOM     32  C26 <0> d   1      -1.048   4.038  -1.608  0.00  0.00     0.041 C 
ATOM     33  C23 <0> d   1      -0.920   0.479  -0.504  0.00  0.00     0.143 C 
ATOM     34  C24 <0> d   1      -1.938   0.560   0.637  0.00  0.00     0.266 C 
ATOM     35  C25 <0> d   1      -1.181  -0.779  -1.334  0.00  0.00     0.041 C 
ATOM     36  H34 <0> d   1      -0.746   1.803   1.760  0.00  0.00     0.280 HD
ENDBRANCH  27  28
ENDBRANCH  26  27
ENDBRANCH  25  26
ENDBRANCH   3  25
TORSDOF 8
