REMARK  8 active torsions:
REMARK  status: ('A' for Active; 'I' for Inactive)
REMARK    1  A    between atoms: C3_3  and  C24_32 
REMARK    2  A    between atoms: C4_4  and  C5_8 
REMARK    3  A    between atoms: C8_11  and  O2_15 
REMARK    4  A    between atoms: O2_15  and  C11_16 
REMARK    5  A    between atoms: C11_16  and  C12_17 
REMARK    6  A    between atoms: C12_17  and  N3_18 
REMARK    7  A    between atoms: N4_21  and  C17_24 
REMARK    8  A    between atoms: C22_29  and  O3_30 
ROOT
ATOM      1  C5  <0> d   1      -0.153  -3.232   1.659  0.00  0.00     0.032 A 
ATOM      2  C6  <0> d   1      -0.258  -2.998   3.029  0.00  0.00     0.019 A 
ATOM      3  C7  <0> d   1      -0.346  -4.060   3.905  0.00  0.00     0.038 A 
ATOM      4  C8  <0> d   1      -0.331  -5.364   3.425  0.00  0.00     0.071 A 
ATOM      5  C9  <0> d   1      -0.227  -5.605   2.064  0.00  0.00     0.077 A 
ATOM      6  C10 <0> d   1      -0.143  -4.545   1.177  0.00  0.00     0.122 A 
ATOM      7  O1  <0> d   1      -0.047  -4.780  -0.158  0.00  0.00    -0.191 OA
ENDROOT
BRANCH   4   8
ATOM      8  O2  <0> d   1      -0.417  -6.405   4.293  0.00  0.00    -0.349 OA
BRANCH   8   9
ATOM      9  C11 <0> d   1      -0.395  -7.720   3.733  0.00  0.00     0.203 C 
BRANCH   9  10
ATOM     10  C12 <0> d   1      -0.502  -8.754   4.856  0.00  0.00     0.261 C 
BRANCH  10  11
ATOM     11  N3  <0> d   1      -1.811  -8.633   5.511  0.00  0.00    -0.066 N 
ATOM     12  C16 <0> d   1      -1.866  -9.542   6.662  0.00  0.00     0.254 C 
ATOM     13  C15 <0> d   1      -3.185  -9.334   7.414  0.00  0.00     0.150 C 
ATOM     14  N4  <0> d   1      -4.295  -9.492   6.461  0.00  0.00    -0.375 N 
ATOM     15  C14 <0> d   1      -4.238  -8.738   5.200  0.00  0.00     0.150 C 
ATOM     16  C13 <0> d   1      -2.870  -8.974   4.553  0.00  0.00     0.254 C 
ATOM     17  H32 <0> d   1      -1.940  -7.683   5.827  0.00  0.00     0.280 HD
BRANCH  14  18
ATOM     18  C17 <0> d   1      -5.374 -10.337   6.747  0.00  0.00     0.064 A 
ATOM     19  C22 <0> d   1      -6.492  -9.840   7.412  0.00  0.00     0.094 A 
ATOM     20  C21 <0> d   1      -7.559 -10.680   7.688  0.00  0.00     0.039 A 
ATOM     21  C20 <0> d   1      -7.508 -12.009   7.312  0.00  0.00     0.003 A 
ATOM     22  C19 <0> d   1      -6.396 -12.504   6.656  0.00  0.00     0.002 A 
ATOM     23  C18 <0> d   1      -5.330 -11.672   6.372  0.00  0.00     0.032 A 
BRANCH  19  24
ATOM     24  O3  <0> d   1      -6.539  -8.533   7.786  0.00  0.00    -0.354 OA
ATOM     25  C23 <0> d   1      -7.717  -8.094   8.465  0.00  0.00     0.210 C 
ENDBRANCH  19  24
ENDBRANCH  14  18
ENDBRANCH  10  11
ENDBRANCH   9  10
ENDBRANCH   8   9
ENDBRANCH   4   8
BRANCH   1  26
ATOM     26  C4  <0> d   1      -0.059  -2.093   0.715  0.00  0.00     0.103 A 
ATOM     27  C3  <0> d   1       0.796  -0.970   0.845  0.00  0.00     0.029 A 
ATOM     28  C2  <0> d   1       0.574  -0.160  -0.229  0.00  0.00     0.037 A 
ATOM     29  C1  <0> d   1       1.262   1.151  -0.509  0.00  0.00     0.070 C 
ATOM     30  N2  <0> d   1      -0.375  -0.738  -0.993  0.00  0.00    -0.281 N 
ATOM     31  N1  <0> d   1      -0.754  -1.944  -0.392  0.00  0.00    -0.173 NA
ATOM     32  H1  <0> d   1      -0.734  -0.379  -1.820  0.00  0.00     0.189 HD
BRANCH  27  33
ATOM     33  C24 <0> d   1       1.758  -0.721   1.947  0.00  0.00    -0.022 A 
ATOM     34  C29 <0> d   1       1.552   0.339   2.828  0.00  0.00     0.012 A 
ATOM     35  C28 <0> d   1       2.446   0.561   3.856  0.00  0.00     0.001 A 
ATOM     36  C27 <0> d   1       3.551  -0.258   4.005  0.00  0.00     0.000 A 
ATOM     37  C26 <0> d   1       3.763  -1.308   3.129  0.00  0.00     0.001 A 
ATOM     38  C25 <0> d   1       2.872  -1.543   2.102  0.00  0.00     0.012 A 
ENDBRANCH  27  33
ENDBRANCH   1  26
TORSDOF 8
