REMARK  11 active torsions:
REMARK  status: ('A' for Active; 'I' for Inactive)
REMARK    1  A    between atoms: C2_2  and  C3_3 
REMARK    2  A    between atoms: C7_8  and  C22_30 
REMARK    3  A    between atoms: C8_9  and  C19_25 
REMARK    4  A    between atoms: C10_12  and  C12_15 
REMARK    5  A    between atoms: C11_13  and  O3_14 
REMARK    6  A    between atoms: C12_15  and  N1_16 
REMARK    7  A    between atoms: N2_19  and  C17_22 
REMARK    8  A    between atoms: C17_22  and  C18_23 
REMARK    9  A    between atoms: C18_23  and  O4_24 
REMARK   10  A    between atoms: C19_25  and  O6_27 
REMARK   11  A    between atoms: O6_27  and  C20_28 
ROOT
ATOM      1  C3  <0> d   1       0.806  -0.649   1.062  0.00  0.00    -0.024 A 
ATOM      2  C4  <0> d   1       2.162  -0.810   1.085  0.00  0.00     0.028 A 
ATOM      3  C5  <0> d   1       2.785  -1.270   2.247  0.00  0.00     0.050 A 
ATOM      4  C6  <0> d   1       4.244  -1.471   2.304  0.00  0.00     0.201 C 
ATOM      5  O1  <0> d   1       4.989  -1.038   1.443  0.00  0.00    -0.286 OA
ATOM      6  C7  <0> d   1       4.750  -2.231   3.471  0.00  0.00     0.091 C 
ATOM      7  C8  <0> d   1       3.884  -2.450   4.524  0.00  0.00     0.168 C 
ATOM      8  O2  <0> d   1       2.626  -1.989   4.524  0.00  0.00    -0.302 OA
ATOM      9  C9  <0> d   1       2.026  -1.560   3.397  0.00  0.00     0.101 A 
ATOM     10  C10 <0> d   1       0.648  -1.394   3.353  0.00  0.00     0.038 A 
ATOM     11  C11 <0> d   1       0.045  -0.936   2.194  0.00  0.00     0.082 A 
ENDROOT
BRANCH  10  12
ATOM     12  C12 <0> d   1      -0.188  -1.705   4.568  0.00  0.00     0.317 C 
BRANCH  12  13
ATOM     13  N1  <0> d   1      -0.316  -0.499   5.397  0.00  0.00     0.096 N 
ATOM     14  C16 <0> d   1      -1.312  -0.694   6.460  0.00  0.00     0.303 C 
ATOM     15  C15 <0> d   1      -1.472   0.608   7.249  0.00  0.00     0.302 C 
ATOM     16  N2  <0> d   1      -0.173   0.998   7.814  0.00  0.00     0.093 N 
ATOM     17  C14 <0> d   1       0.823   1.192   6.752  0.00  0.00     0.302 C 
ATOM     18  C13 <0> d   1       0.984  -0.109   5.962  0.00  0.00     0.303 C 
BRANCH  16  19
ATOM     19  C17 <0> d   1      -0.301   2.204   8.643  0.00  0.00     0.298 C 
BRANCH  19  20
ATOM     20  C18 <0> d   1      -1.150   1.888   9.876  0.00  0.00     0.194 C 
BRANCH  20  21
ATOM     21  O4  <0> d   1      -0.466   0.937  10.695  0.00  0.00    -0.399 OA
ATOM     22  H22 <0> d   1      -0.947   0.689  11.496  0.00  0.00     0.209 HD
ENDBRANCH  20  21
ENDBRANCH  19  20
ENDBRANCH  16  19
ENDBRANCH  12  13
ENDBRANCH  10  12
BRANCH  11  23
ATOM     23  O3  <0> d   1      -1.302  -0.770   2.158  0.00  0.00    -0.359 OA
ATOM     24  H7  <0> d   1      -1.787  -1.555   1.872  0.00  0.00     0.217 HD
ENDBRANCH  11  23
BRANCH   1  25
ATOM     25  C2  <0> d   1       0.130  -0.153  -0.190  0.00  0.00     0.037 C 
ATOM     26  C1  <0> d   1      -0.050   1.364  -0.105  0.00  0.00     0.010 C 
ENDBRANCH   1  25
BRANCH   7  27
ATOM     27  C19 <0> d   1       4.361  -3.219   5.692  0.00  0.00     0.318 C 
ATOM     28  O5  <0> d   1       4.185  -4.420   5.742  0.00  0.00    -0.257 OA
BRANCH  27  29
ATOM     29  O6  <0> d   1       4.991  -2.588   6.703  0.00  0.00    -0.316 OA
BRANCH  29  30
ATOM     30  C20 <0> d   1       5.425  -3.394   7.800  0.00  0.00     0.175 C 
ATOM     31  C21 <0> d   1       6.114  -2.510   8.842  0.00  0.00     0.034 C 
ENDBRANCH  29  30
ENDBRANCH  27  29
ENDBRANCH   7  27
BRANCH   6  32
ATOM     32  C22 <0> d   1       6.134  -2.737   3.507  0.00  0.00     0.116 A 
ATOM     33  S1  <0> d   1       7.377  -2.700   2.223  0.00  0.00    -0.067 SA
ATOM     34  C28 <0> d   1       8.668  -3.502   3.143  0.00  0.00     0.035 A 
ATOM     35  C23 <0> d   1       8.040  -3.751   4.388  0.00  0.00     0.075 A 
ATOM     36  C27 <0> d   1       9.967  -3.866   2.884  0.00  0.00     0.021 A 
ATOM     37  N3  <0> d   1       6.769  -3.338   4.492  0.00  0.00    -0.239 NA
ATOM     38  C24 <0> d   1       8.831  -4.404   5.365  0.00  0.00     0.033 A 
ATOM     39  C25 <0> d   1      10.115  -4.759   5.098  0.00  0.00     0.002 A 
ATOM     40  C26 <0> d   1      10.703  -4.500   3.867  0.00  0.00     0.002 A 
ENDBRANCH   6  32
TORSDOF 11
