REMARK  6 active torsions:
REMARK  status: ('A' for Active; 'I' for Inactive)
REMARK    1  A    between atoms: C2_2  and  N1_3 
REMARK    2  A    between atoms: N2_6  and  C7_9 
REMARK    3  A    between atoms: C7_9  and  C8_10 
REMARK    4  A    between atoms: C9_11  and  O4_29 
REMARK    5  A    between atoms: C15_18  and  C16_19 
REMARK    6  A    between atoms: C20_23  and  O2_25 
ROOT
ATOM      1  C8  <0> d   1       2.056   6.750  -0.259  0.00  0.00     0.038 A 
ATOM      2  C9  <0> d   1       2.641   8.000  -0.377  0.00  0.00     0.076 A 
ATOM      3  C10 <0> d   1       4.024   8.130  -0.459  0.00  0.00     0.038 A 
ATOM      4  C11 <0> d   1       4.821   7.020  -0.423  0.00  0.00     0.021 A 
ATOM      5  C12 <0> d   1       4.246   5.755  -0.304  0.00  0.00     0.051 A 
ATOM      6  C13 <0> d   1       2.851   5.612  -0.221  0.00  0.00     0.101 A 
ATOM      7  O1  <0> d   1       2.533   4.303  -0.113  0.00  0.00    -0.305 OA
ATOM      8  C14 <0> d   1       3.634   3.515  -0.115  0.00  0.00     0.127 A 
ATOM      9  C15 <0> d   1       3.651   2.163  -0.021  0.00  0.00     0.053 C 
ATOM     10  C23 <0> d   1       4.809   4.394  -0.233  0.00  0.00     0.218 A 
ATOM     11  O3  <0> d   1       5.983   4.070  -0.266  0.00  0.00    -0.284 OA
ENDROOT
BRANCH   1  12
ATOM     12  C7  <0> d   1       0.557   6.625  -0.172  0.00  0.00     0.317 C 
BRANCH  12  13
ATOM     13  N2  <0> d   1       0.142   6.681   1.237  0.00  0.00     0.096 N 
ATOM     14  C4  <0> d   1      -1.318   6.801   1.351  0.00  0.00     0.300 C 
ATOM     15  C3  <0> d   1      -1.702   6.936   2.826  0.00  0.00     0.265 C 
ATOM     16  N1  <0> d   1      -1.213   5.765   3.567  0.00  0.00    -0.068 N 
ATOM     17  C6  <0> d   1       0.247   5.645   3.452  0.00  0.00     0.265 C 
ATOM     18  H27 <0> d   1      -1.663   4.867   3.119  0.00  0.00     0.280 HD
ATOM     19  C5  <0> d   1       0.631   5.510   1.977  0.00  0.00     0.300 C 
BRANCH  16  20
ATOM     20  C2  <0> d   1      -1.628   5.821   4.975  0.00  0.00     0.230 C 
ATOM     21  C1  <0> d   1      -0.901   4.731   5.765  0.00  0.00     0.034 C 
ENDBRANCH  16  20
ENDBRANCH  12  13
ENDBRANCH   1  12
BRANCH   2  22
ATOM     22  O4  <0> d   1       1.858   9.109  -0.413  0.00  0.00    -0.360 OA
ATOM     23  H26 <0> d   1       2.317  10.104  -0.507  0.00  0.00     0.217 HD
ENDBRANCH   2  22
BRANCH   9  24
ATOM     24  C16 <0> d   1       2.389   1.410  -0.020  0.00  0.00    -0.031 A 
ATOM     25  C21 <0> d   1       1.166   2.088   0.011  0.00  0.00     0.048 A 
ATOM     26  C20 <0> d   1      -0.018   1.371   0.012  0.00  0.00     0.069 A 
ATOM     27  C19 <0> d   1       0.010  -0.018  -0.018  0.00  0.00     0.037 A 
ATOM     28  C18 <0> d   1       1.218  -0.691  -0.049  0.00  0.00     0.004 A 
ATOM     29  C17 <0> d   1       2.405   0.010  -0.050  0.00  0.00     0.011 A 
BRANCH  26  30
ATOM     30  O2  <0> d   1      -1.208   2.026   0.043  0.00  0.00    -0.356 OA
ATOM     31  C22 <0> d   1      -2.390   1.223   0.041  0.00  0.00     0.210 C 
ENDBRANCH  26  30
ENDBRANCH   9  24
TORSDOF 6
