REMARK  8 active torsions:
REMARK  status: ('A' for Active; 'I' for Inactive)
REMARK    1  A    between atoms: C2_2  and  C4_4 
REMARK    2  A    between atoms: C4_4  and  O1_5 
REMARK    3  A    between atoms: O1_5  and  C5_6 
REMARK    4  A    between atoms: C7_8  and  O2_9 
REMARK    5  A    between atoms: C8_10  and  C9_11 
REMARK    6  A    between atoms: C10_12  and  C13_18 
REMARK    7  A    between atoms: C12_15  and  N3_17 
REMARK    8  A    between atoms: C18_23  and  O3_24 
ROOT
ATOM      1  C9  <0> d   1       0.104  -5.535  -5.537  0.00  0.00     0.101 A 
ATOM      2  C10 <0> d   1      -0.091  -5.008  -6.830  0.00  0.00     0.025 A 
ATOM      3  C11 <0> d   1      -0.165  -5.900  -7.900  0.00  0.00     0.151 A 
ATOM      4  N1  <0> d   1      -0.051  -7.197  -7.668  0.00  0.00    -0.075 NA
ATOM      5  C12 <0> d   1       0.132  -7.659  -6.439  0.00  0.00     0.720 A 
ATOM      6  N2  <0> d   1       0.214  -6.853  -5.391  0.00  0.00    -0.062 NA
ENDROOT
BRANCH   1   7
ATOM      7  C8  <0> d   1       0.191  -4.638  -4.364  0.00  0.00     0.028 A 
ATOM      8  C7  <0> d   1       1.257  -4.758  -3.465  0.00  0.00     0.081 A 
ATOM      9  C6  <0> d   1       1.332  -3.916  -2.369  0.00  0.00     0.074 A 
ATOM     10  C5  <0> d   1       0.352  -2.956  -2.164  0.00  0.00     0.071 A 
ATOM     11  C21 <0> d   1      -0.710  -2.839  -3.054  0.00  0.00     0.038 A 
ATOM     12  C20 <0> d   1      -0.790  -3.669  -4.150  0.00  0.00     0.019 A 
BRANCH   8  13
ATOM     13  O2  <0> d   1       2.215  -5.699  -3.667  0.00  0.00    -0.360 OA
ATOM     14  H21 <0> d   1       2.025  -6.550  -3.248  0.00  0.00     0.217 HD
ENDBRANCH   8  13
BRANCH  10  15
ATOM     15  O1  <0> d   1       0.427  -2.131  -1.088  0.00  0.00    -0.347 OA
BRANCH  15  16
ATOM     16  C4  <0> d   1      -0.618  -1.168  -0.934  0.00  0.00     0.208 C 
BRANCH  16  17
ATOM     17  C2  <0> d   1      -0.367  -0.349   0.306  0.00  0.00    -0.069 C 
ATOM     18  C1  <0> d   1      -1.331   0.742   0.696  0.00  0.00     0.044 C 
ATOM     19  C3  <0> d   1       0.689  -0.585   1.044  0.00  0.00     0.016 C 
ENDBRANCH  16  17
ENDBRANCH  15  16
ENDBRANCH  10  15
ENDBRANCH   1   7
BRANCH   2  20
ATOM     20  C13 <0> d   1      -0.214  -3.548  -7.047  0.00  0.00     0.011 A 
ATOM     21  C18 <0> d   1       0.877  -2.707  -6.805  0.00  0.00     0.079 A 
ATOM     22  C17 <0> d   1       0.754  -1.343  -7.015  0.00  0.00     0.037 A 
ATOM     23  C16 <0> d   1      -0.446  -0.815  -7.451  0.00  0.00     0.003 A 
ATOM     24  C15 <0> d   1      -1.530  -1.643  -7.686  0.00  0.00     0.001 A 
ATOM     25  C14 <0> d   1      -1.420  -3.005  -7.487  0.00  0.00     0.015 A 
BRANCH  21  26
ATOM     26  O3  <0> d   1       2.055  -3.227  -6.370  0.00  0.00    -0.355 OA
ATOM     27  C19 <0> d   1       3.125  -2.307  -6.144  0.00  0.00     0.210 C 
ENDBRANCH  21  26
ENDBRANCH   2  20
BRANCH   5  28
ATOM     28  N3  <0> d   1       0.246  -9.024  -6.245  0.00  0.00    -0.231 N 
ATOM     29  H10 <0> d   1       0.192  -9.628  -7.003  0.00  0.00     0.174 HD
ATOM     30  H11 <0> d   1       0.380  -9.378  -5.352  0.00  0.00     0.174 HD
ENDBRANCH   5  28
TORSDOF 8
