REMARK  7 active torsions:
REMARK  status: ('A' for Active; 'I' for Inactive)
REMARK    1  A    between atoms: C3_3  and  O6_33 
REMARK    2  A    between atoms: C4_4  and  C18_23 
REMARK    3  A    between atoms: C9_10  and  C10_11 
REMARK    4  A    between atoms: C18_23  and  N1_24 
REMARK    5  A    between atoms: N2_27  and  C23_30 
REMARK    6  A    between atoms: C23_30  and  C24_31 
REMARK    7  A    between atoms: C24_31  and  O5_32 
ROOT
ATOM      1  C1  <0> d   1       2.690   7.353   4.996  0.00  0.00     0.021 A 
ATOM      2  C2  <0> d   1       2.388   7.233   3.669  0.00  0.00     0.038 A 
ATOM      3  C3  <0> d   1       2.516   6.002   3.031  0.00  0.00     0.076 A 
ATOM      4  C4  <0> d   1       2.938   4.885   3.733  0.00  0.00     0.038 A 
ATOM      5  C5  <0> d   1       3.250   4.990   5.083  0.00  0.00     0.101 A 
ATOM      6  C6  <0> d   1       3.123   6.238   5.714  0.00  0.00     0.051 A 
ATOM      7  C7  <0> d   1       3.518   6.035   7.120  0.00  0.00     0.218 A 
ATOM      8  O1  <0> d   1       3.551   6.865   8.013  0.00  0.00    -0.284 OA
ATOM      9  C8  <0> d   1       3.864   4.609   7.204  0.00  0.00     0.128 A 
ATOM     10  C9  <0> d   1       4.289   3.951   8.312  0.00  0.00     0.055 C 
ATOM     11  O4  <0> d   1       3.680   4.071   5.975  0.00  0.00    -0.305 OA
ENDROOT
BRANCH  10  12
ATOM     12  C10 <0> d   1       4.725   2.553   8.213  0.00  0.00     0.002 A 
ATOM     13  C15 <0> d   1       4.824   1.760   9.370  0.00  0.00     0.090 A 
ATOM     14  C14 <0> d   1       5.233   0.442   9.265  0.00  0.00     0.002 A 
ATOM     15  O2  <0> d   1       4.522   2.297  10.579  0.00  0.00    -0.325 OA
ATOM     16  C13 <0> d   1       5.545  -0.090   8.027  0.00  0.00     0.036 A 
ATOM     17  C17 <0> d   1       5.340  -0.424  10.496  0.00  0.00     0.212 C 
ATOM     18  C12 <0> d   1       5.451   0.687   6.883  0.00  0.00     0.035 A 
ATOM     19  C11 <0> d   1       5.038   2.000   6.966  0.00  0.00     0.038 A 
ATOM     20 Cl1  <0> d   1       5.847   0.002   5.338  0.00  0.00    -0.084 Cl
ATOM     21  O3  <0> d   1       5.340   0.408  11.660  0.00  0.00    -0.362 OA
ATOM     22  C16 <0> d   1       4.288   1.381  11.653  0.00  0.00     0.345 C 
ENDBRANCH  10  12
BRANCH   4  23
ATOM     23  C18 <0> d   1       3.066   3.558   3.032  0.00  0.00     0.317 C 
BRANCH  23  24
ATOM     24  N1  <0> d   1       1.794   2.828   3.130  0.00  0.00     0.096 N 
ATOM     25  C22 <0> d   1       1.947   1.441   2.669  0.00  0.00     0.303 C 
ATOM     26  C21 <0> d   1       0.624   0.694   2.861  0.00  0.00     0.302 C 
ATOM     27  N2  <0> d   1      -0.437   1.382   2.112  0.00  0.00     0.093 N 
ATOM     28  C20 <0> d   1      -0.589   2.769   2.573  0.00  0.00     0.302 C 
ATOM     29  C19 <0> d   1       0.734   3.515   2.381  0.00  0.00     0.303 C 
BRANCH  27  30
ATOM     30  C23 <0> d   1      -1.708   0.652   2.210  0.00  0.00     0.298 C 
BRANCH  30  31
ATOM     31  C24 <0> d   1      -2.644   1.105   1.088  0.00  0.00     0.194 C 
BRANCH  31  32
ATOM     32  O5  <0> d   1      -2.098   0.716  -0.174  0.00  0.00    -0.399 OA
ATOM     33  H24 <0> d   1      -2.635   0.957  -1.103  0.00  0.00     0.209 HD
ENDBRANCH  31  32
ENDBRANCH  30  31
ENDBRANCH  27  30
ENDBRANCH  23  24
ENDBRANCH   4  23
BRANCH   3  34
ATOM     34  O6  <0> d   1       2.218   5.894   1.711  0.00  0.00    -0.360 OA
ATOM     35  H25 <0> d   1       2.318   4.924   1.202  0.00  0.00     0.217 HD
ENDBRANCH   3  34
TORSDOF 7
