REMARK  9 active torsions:
REMARK  status: ('A' for Active; 'I' for Inactive)
REMARK    1  A    between atoms: C2_2  and  O1_3 
REMARK    2  A    between atoms: O1_3  and  C3_4 
REMARK    3  A    between atoms: C6_7  and  C9_10 
REMARK    4  A    between atoms: C15_17  and  O5_31 
REMARK    5  A    between atoms: C16_18  and  C18_21 
REMARK    6  A    between atoms: C18_21  and  N1_22 
REMARK    7  A    between atoms: N2_25  and  C23_28 
REMARK    8  A    between atoms: C23_28  and  C24_29 
REMARK    9  A    between atoms: C24_29  and  O4_30 
ROOT
ATOM      1  C9  <0> d   1       1.568  -2.018  -1.052  0.00  0.00     0.053 C 
ATOM      2  C10 <0> d   1       1.125  -0.735  -1.023  0.00  0.00     0.127 A 
ATOM      3  C11 <0> d   1      -0.270  -0.295  -1.169  0.00  0.00     0.218 A 
ATOM      4  O2  <0> d   1      -1.258  -0.989  -1.338  0.00  0.00    -0.284 OA
ATOM      5  C12 <0> d   1      -0.207   1.174  -1.064  0.00  0.00     0.051 A 
ATOM      6  C13 <0> d   1      -1.176   2.177  -1.114  0.00  0.00     0.021 A 
ATOM      7  C14 <0> d   1      -0.808   3.487  -0.986  0.00  0.00     0.038 A 
ATOM      8  C15 <0> d   1       0.530   3.821  -0.796  0.00  0.00     0.076 A 
ATOM      9  C16 <0> d   1       1.502   2.836  -0.739  0.00  0.00     0.038 A 
ATOM     10  C17 <0> d   1       1.145   1.500  -0.873  0.00  0.00     0.101 A 
ATOM     11  O3  <0> d   1       1.887   0.371  -0.854  0.00  0.00    -0.305 OA
ENDROOT
BRANCH   9  12
ATOM     12  C18 <0> d   1       2.947   3.213  -0.534  0.00  0.00     0.317 C 
BRANCH  12  13
ATOM     13  N1  <0> d   1       3.587   3.427  -1.838  0.00  0.00     0.096 N 
ATOM     14  C22 <0> d   1       4.921   4.023  -1.679  0.00  0.00     0.300 C 
ATOM     15  C21 <0> d   1       5.521   4.302  -3.059  0.00  0.00     0.265 C 
ATOM     16  N2  <0> d   1       5.595   3.048  -3.821  0.00  0.00    -0.066 N 
ATOM     17  C20 <0> d   1       4.261   2.452  -3.980  0.00  0.00     0.265 C 
ATOM     18  H29 <0> d   1       6.217   2.341  -3.252  0.00  0.00     0.280 HD
ATOM     19  C19 <0> d   1       3.662   2.172  -2.600  0.00  0.00     0.300 C 
BRANCH  16  20
ATOM     20  C23 <0> d   1       6.236   3.261  -5.125  0.00  0.00     0.260 C 
BRANCH  20  21
ATOM     21  C24 <0> d   1       5.296   4.060  -6.030  0.00  0.00     0.192 C 
BRANCH  21  22
ATOM     22  O4  <0> d   1       5.137   5.380  -5.507  0.00  0.00    -0.399 OA
ATOM     23  H27 <0> d   1       4.492   6.104  -6.026  0.00  0.00     0.209 HD
ENDBRANCH  21  22
ENDBRANCH  20  21
ENDBRANCH  16  20
ENDBRANCH  12  13
ENDBRANCH   9  12
BRANCH   8  24
ATOM     24  O5  <0> d   1       0.886   5.125  -0.665  0.00  0.00    -0.360 OA
ATOM     25  H28 <0> d   1       1.941   5.395  -0.515  0.00  0.00     0.217 HD
ENDBRANCH   8  24
BRANCH   1  26
ATOM     26  C6  <0> d   1       3.008  -2.298  -1.002  0.00  0.00    -0.033 A 
ATOM     27  C5  <0> d   1       3.919  -1.258  -0.775  0.00  0.00     0.014 A 
ATOM     28  C4  <0> d   1       5.268  -1.527  -0.728  0.00  0.00     0.037 A 
ATOM     29  C3  <0> d   1       5.727  -2.827  -0.906  0.00  0.00     0.068 A 
ATOM     30  C8  <0> d   1       4.827  -3.863  -1.131  0.00  0.00     0.037 A 
ATOM     31  C7  <0> d   1       3.476  -3.607  -1.174  0.00  0.00     0.014 A 
BRANCH  29  32
ATOM     32  O1  <0> d   1       7.059  -3.086  -0.860  0.00  0.00    -0.352 OA
BRANCH  32  33
ATOM     33  C2  <0> d   1       7.463  -4.444  -1.050  0.00  0.00     0.171 C 
ATOM     34  C1  <0> d   1       8.987  -4.539  -0.965  0.00  0.00     0.034 C 
ENDBRANCH  32  33
ENDBRANCH  29  32
ENDBRANCH   1  26
TORSDOF 9
