REMARK  5 active torsions:
REMARK  status: ('A' for Active; 'I' for Inactive)
REMARK    1  A    between atoms: O1_2  and  C2_3 
REMARK    2  A    between atoms: C6_7  and  C9_11 
REMARK    3  A    between atoms: C7_8  and  O2_9 
REMARK    4  A    between atoms: C16_19  and  C18_22 
REMARK    5  A    between atoms: C18_22  and  N1_23 
ROOT
ATOM      1  C9  <0> d   1       3.647   2.171  -0.021  0.00  0.00     0.055 C 
ATOM      2  C10 <0> d   1       3.627   3.525  -0.116  0.00  0.00     0.128 A 
ATOM      3  C11 <0> d   1       4.799   4.405  -0.234  0.00  0.00     0.218 A 
ATOM      4  O3  <0> d   1       5.974   4.083  -0.266  0.00  0.00    -0.284 OA
ATOM      5  C12 <0> d   1       4.234   5.765  -0.306  0.00  0.00     0.051 A 
ATOM      6  C13 <0> d   1       4.808   7.032  -0.425  0.00  0.00     0.021 A 
ATOM      7  C14 <0> d   1       4.009   8.140  -0.462  0.00  0.00     0.041 A 
ATOM      8  C15 <0> d   1       2.625   8.008  -0.381  0.00  0.00     0.118 A 
ATOM      9  C16 <0> d   1       2.042   6.757  -0.263  0.00  0.00     0.041 A 
ATOM     10  C17 <0> d   1       2.840   5.620  -0.224  0.00  0.00     0.101 A 
ATOM     11  O4  <0> d   1       2.524   4.311  -0.115  0.00  0.00    -0.305 OA
ATOM     12  O6  <0> d   1       1.841   9.115  -0.419  0.00  0.00    -0.191 OA
ENDROOT
BRANCH   1  13
ATOM     13  C6  <0> d   1       2.393   1.412  -0.086  0.00  0.00     0.003 A 
ATOM     14  C5  <0> d   1       1.166   2.062   0.100  0.00  0.00     0.014 A 
ATOM     15  C4  <0> d   1      -0.008   1.345   0.039  0.00  0.00     0.004 A 
ATOM     16  C3  <0> d   1       0.016  -0.019  -0.206  0.00  0.00     0.040 A 
ATOM     17  C2  <0> d   1       1.221  -0.677  -0.392  0.00  0.00     0.102 A 
ATOM     18  C7  <0> d   1       2.416   0.030  -0.333  0.00  0.00     0.111 A 
BRANCH  17  19
ATOM     19  O1  <0> d   1       1.234  -2.016  -0.630  0.00  0.00    -0.353 OA
ATOM     20  C1  <0> d   1      -0.030  -2.680  -0.677  0.00  0.00     0.210 C 
ENDBRANCH  17  19
BRANCH  18  21
ATOM     21  O2  <0> d   1       3.599  -0.611  -0.514  0.00  0.00    -0.352 OA
ATOM     22  C8  <0> d   1       4.093  -0.695  -1.852  0.00  0.00     0.210 C 
ENDBRANCH  18  21
ENDBRANCH   1  13
BRANCH   9  23
ATOM     23  C18 <0> d   1       0.543   6.629  -0.176  0.00  0.00     0.317 C 
BRANCH  23  24
ATOM     24  N1  <0> d   1       0.128   6.686   1.231  0.00  0.00     0.097 N 
ATOM     25  C22 <0> d   1      -1.333   6.803   1.345  0.00  0.00     0.299 C 
ATOM     26  C21 <0> d   1      -1.718   6.918   2.822  0.00  0.00     0.198 C 
ATOM     27  O5  <0> d   1      -1.209   5.786   3.532  0.00  0.00    -0.388 OA
ATOM     28  C20 <0> d   1       0.211   5.641   3.443  0.00  0.00     0.198 C 
ATOM     29  C19 <0> d   1       0.615   5.513   1.972  0.00  0.00     0.299 C 
ENDBRANCH  23  24
ENDBRANCH   9  23
TORSDOF 5
