REMARK  7 active torsions:
REMARK  status: ('A' for Active; 'I' for Inactive)
REMARK    1  A    between atoms: N1_4  and  C7_9 
REMARK    2  A    between atoms: C7_9  and  C8_10 
REMARK    3  A    between atoms: C8_10  and  O2_11 
REMARK    4  A    between atoms: O2_11  and  C9_12 
REMARK    5  A    between atoms: C16_20  and  C18_23 
REMARK    6  A    between atoms: C21_26  and  O6_31 
REMARK    7  A    between atoms: C22_27  and  O5_29 
ROOT
ATOM      1  C9  <0> d   1      -2.145  -6.013   1.034  0.00  0.00     0.071 A 
ATOM      2  C10 <0> d   1      -2.569  -6.721  -0.090  0.00  0.00     0.038 A 
ATOM      3  C11 <0> d   1      -2.485  -8.084  -0.117  0.00  0.00     0.021 A 
ATOM      4  C12 <0> d   1      -1.973  -8.767   0.986  0.00  0.00     0.049 A 
ATOM      5  C13 <0> d   1      -1.549  -8.064   2.128  0.00  0.00     0.091 A 
ATOM      6  C14 <0> d   1      -1.633  -6.677   2.135  0.00  0.00     0.075 A 
ATOM      7  O3  <0> d   1      -1.070  -8.728   3.197  0.00  0.00    -0.321 OA
ATOM      8  C15 <0> d   1      -0.698 -10.007   3.121  0.00  0.00     0.159 C 
ATOM      9  C16 <0> d   1      -1.047 -10.814   2.085  0.00  0.00     0.048 C 
ATOM     10  C17 <0> d   1      -1.857 -10.238   0.996  0.00  0.00     0.197 C 
ATOM     11  O4  <0> d   1      -2.398 -10.934   0.154  0.00  0.00    -0.286 OA
ENDROOT
BRANCH   1  12
ATOM     12  O2  <0> d   1      -2.232  -4.659   1.046  0.00  0.00    -0.349 OA
BRANCH  12  13
ATOM     13  C8  <0> d   1      -2.769  -4.032  -0.120  0.00  0.00     0.203 C 
BRANCH  13  14
ATOM     14  C7  <0> d   1      -2.787  -2.515   0.078  0.00  0.00     0.261 C 
BRANCH  14  15
ATOM     15  N1  <0> d   1      -1.410  -2.023   0.219  0.00  0.00    -0.064 N 
ATOM     16  C3  <0> d   1      -0.689  -2.218  -1.046  0.00  0.00     0.266 C 
ATOM     17  C2  <0> d   1       0.746  -1.705  -0.897  0.00  0.00     0.143 C 
ATOM     18  C1  <0> d   1       1.482  -1.851  -2.231  0.00  0.00     0.041 C 
ATOM     19  O1  <0> d   1       0.718  -0.327  -0.516  0.00  0.00    -0.378 OA
ATOM     20  C5  <0> d   1       0.004  -0.083   0.699  0.00  0.00     0.143 C 
ATOM     21  C4  <0> d   1      -1.432  -0.593   0.553  0.00  0.00     0.266 C 
ATOM     22  C6  <0> d   1      -0.015   1.420   0.989  0.00  0.00     0.041 C 
ATOM     23  H30 <0> d   1      -0.944  -2.533   0.954  0.00  0.00     0.280 HD
ENDBRANCH  14  15
ENDBRANCH  13  14
ENDBRANCH  12  13
ENDBRANCH   1  12
BRANCH   9  24
ATOM     24  C18 <0> d   1      -0.624 -12.236   2.051  0.00  0.00    -0.017 A 
ATOM     25  C23 <0> d   1      -1.099 -13.129   3.010  0.00  0.00     0.052 A 
ATOM     26  C22 <0> d   1      -0.706 -14.455   2.971  0.00  0.00     0.102 A 
ATOM     27  C21 <0> d   1       0.170 -14.892   1.981  0.00  0.00     0.101 A 
ATOM     28  C20 <0> d   1       0.646 -14.002   1.031  0.00  0.00     0.040 A 
ATOM     29  C19 <0> d   1       0.253 -12.679   1.062  0.00  0.00     0.015 A 
BRANCH  26  30
ATOM     30  O5  <0> d   1      -1.172 -15.330   3.902  0.00  0.00    -0.353 OA
ATOM     31  C24 <0> d   1      -2.067 -14.812   4.888  0.00  0.00     0.210 C 
ENDBRANCH  26  30
BRANCH  27  32
ATOM     32  O6  <0> d   1       0.560 -16.195   1.946  0.00  0.00    -0.353 OA
ATOM     33  C25 <0> d   1       1.460 -16.575   0.904  0.00  0.00     0.210 C 
ENDBRANCH  27  32
ENDBRANCH   9  24
TORSDOF 7
