REMARK  7 active torsions:
REMARK  status: ('A' for Active; 'I' for Inactive)
REMARK    1  A    between atoms: N1_4  and  C7_9 
REMARK    2  A    between atoms: C7_9  and  C8_10 
REMARK    3  A    between atoms: C8_10  and  O2_11 
REMARK    4  A    between atoms: O2_11  and  C9_12 
REMARK    5  A    between atoms: C12_15  and  C15_19 
REMARK    6  A    between atoms: C16_20  and  C18_25 
REMARK    7  A    between atoms: C21_28  and  O4_31 
ROOT
ATOM      1  C9  <0> d   1       0.238  -5.925  -2.023  0.00  0.00     0.071 A 
ATOM      2  C10 <0> d   1       1.127  -6.981  -2.172  0.00  0.00     0.038 A 
ATOM      3  C11 <0> d   1       0.656  -8.260  -2.386  0.00  0.00     0.019 A 
ATOM      4  C12 <0> d   1      -0.716  -8.494  -2.453  0.00  0.00     0.032 A 
ATOM      5  C13 <0> d   1      -1.611  -7.430  -2.302  0.00  0.00     0.122 A 
ATOM      6  C14 <0> d   1      -1.129  -6.151  -2.082  0.00  0.00     0.077 A 
ATOM      7  O3  <0> d   1      -2.950  -7.652  -2.366  0.00  0.00    -0.191 OA
ENDROOT
BRANCH   4   8
ATOM      8  C15 <0> d   1      -1.226  -9.867  -2.684  0.00  0.00     0.102 A 
ATOM      9  C16 <0> d   1      -0.766 -10.773  -3.672  0.00  0.00     0.022 A 
ATOM     10  C17 <0> d   1      -1.493 -11.919  -3.548  0.00  0.00     0.124 A 
ATOM     11  N2  <0> d   1      -2.366 -11.746  -2.534  0.00  0.00    -0.288 N 
ATOM     12  H3  <0> d   1      -3.011 -12.400  -2.222  0.00  0.00     0.188 HD
ATOM     13  N3  <0> d   1      -2.181 -10.463  -2.004  0.00  0.00    -0.174 NA
BRANCH   9  14
ATOM     14  C18 <0> d   1       0.310 -10.520  -4.662  0.00  0.00    -0.022 A 
ATOM     15  C23 <0> d   1       1.398 -11.386  -4.747  0.00  0.00     0.015 A 
ATOM     16  C22 <0> d   1       2.393 -11.151  -5.673  0.00  0.00     0.037 A 
ATOM     17  C21 <0> d   1       2.318 -10.047  -6.511  0.00  0.00     0.068 A 
ATOM     18  C20 <0> d   1       1.238  -9.180  -6.425  0.00  0.00     0.037 A 
ATOM     19  C19 <0> d   1       0.236  -9.412  -5.506  0.00  0.00     0.015 A 
BRANCH  17  20
ATOM     20  O4  <0> d   1       3.303  -9.816  -7.419  0.00  0.00    -0.356 OA
ATOM     21  C24 <0> d   1       4.385 -10.748  -7.454  0.00  0.00     0.210 C 
ENDBRANCH  17  20
ENDBRANCH   9  14
ENDBRANCH   4   8
BRANCH   1  22
ATOM     22  O2  <0> d   1       0.708  -4.668  -1.812  0.00  0.00    -0.349 OA
BRANCH  22  23
ATOM     23  C8  <0> d   1       2.127  -4.506  -1.762  0.00  0.00     0.206 C 
BRANCH  23  24
ATOM     24  C7  <0> d   1       2.465  -3.034  -1.519  0.00  0.00     0.299 C 
BRANCH  24  25
ATOM     25  N1  <0> d   1       1.981  -2.633  -0.191  0.00  0.00     0.095 N 
ATOM     26  C3  <0> d   1       2.072  -1.177  -0.015  0.00  0.00     0.303 C 
ATOM     27  C2  <0> d   1       1.503  -0.797   1.355  0.00  0.00     0.146 C 
ATOM     28  C1  <0> d   1       1.668   0.707   1.578  0.00  0.00     0.041 C 
ATOM     29  O1  <0> d   1       2.209  -1.511   2.374  0.00  0.00    -0.378 OA
ATOM     30  C5  <0> d   1       2.142  -2.933   2.232  0.00  0.00     0.146 C 
ATOM     31  C4  <0> d   1       2.717  -3.334   0.871  0.00  0.00     0.303 C 
ATOM     32  C6  <0> d   1       2.954  -3.597   3.346  0.00  0.00     0.041 C 
ENDBRANCH  24  25
ENDBRANCH  23  24
ENDBRANCH  22  23
ENDBRANCH   1  22
TORSDOF 7
