REMARK  5 active torsions:
REMARK  status: ('A' for Active; 'I' for Inactive)
REMARK    1  A    between atoms: C2_2  and  O1_3 
REMARK    2  A    between atoms: O1_3  and  C3_4 
REMARK    3  A    between atoms: C6_7  and  C9_10 
REMARK    4  A    between atoms: C11_12  and  O2_13 
REMARK    5  A    between atoms: C15_17  and  N1_21 
ROOT
ATOM      1  C9  <0> d   1       3.527   3.265  -0.012  0.00  0.00     0.089 A 
ATOM      2  C10 <0> d   1       3.651   1.910  -0.020  0.00  0.00     0.075 A 
ATOM      3  C11 <0> d   1       2.489   1.103  -0.015  0.00  0.00     0.081 A 
ATOM      4  C12 <0> d   1       1.185   1.792   0.000  0.00  0.00     0.031 A 
ATOM      5  C13 <0> d   1      -0.013   1.076   0.008  0.00  0.00     0.019 A 
ATOM      6  C14 <0> d   1      -1.203   1.745   0.017  0.00  0.00     0.030 A 
ATOM      7  C15 <0> d   1      -1.227   3.139   0.029  0.00  0.00     0.028 A 
ATOM      8  C16 <0> d   1      -0.045   3.865   0.022  0.00  0.00     0.067 A 
ATOM      9  C17 <0> d   1       1.171   3.198   0.008  0.00  0.00     0.091 A 
ATOM     10  O3  <0> d   1       2.335   3.881   0.001  0.00  0.00    -0.309 OA
ENDROOT
BRANCH   1  11
ATOM     11  C6  <0> d   1       4.751   4.088  -0.019  0.00  0.00    -0.002 A 
ATOM     12  C5  <0> d   1       4.657   5.483  -0.012  0.00  0.00     0.017 A 
ATOM     13  C4  <0> d   1       5.802   6.248  -0.018  0.00  0.00     0.037 A 
ATOM     14  C3  <0> d   1       7.050   5.636  -0.030  0.00  0.00     0.068 A 
ATOM     15  C8  <0> d   1       7.147   4.249  -0.037  0.00  0.00     0.037 A 
ATOM     16  C7  <0> d   1       6.008   3.477  -0.027  0.00  0.00     0.017 A 
BRANCH  14  17
ATOM     17  O1  <0> d   1       8.176   6.394  -0.036  0.00  0.00    -0.352 OA
BRANCH  17  18
ATOM     18  C2  <0> d   1       9.425   5.700  -0.049  0.00  0.00     0.171 C 
ATOM     19  C1  <0> d   1      10.571   6.713  -0.053  0.00  0.00     0.034 C 
ENDBRANCH  17  18
ENDBRANCH  14  17
ENDBRANCH   1  11
BRANCH   3  20
ATOM     20  O2  <0> d   1       2.562  -0.115  -0.021  0.00  0.00    -0.360 OA
ATOM     21  H16 <0> d   1       1.645  -0.721  -0.017  0.00  0.00     0.217 HD
ENDBRANCH   3  20
BRANCH   7  22
ATOM     22  N1  <0> d   1      -2.448   3.809   0.043  0.00  0.00    -0.399 N 
ATOM     23  H14 <0> d   1      -2.472   4.908   0.052  0.00  0.00     0.156 HD
ATOM     24  H15 <0> d   1      -3.388   3.238   0.044  0.00  0.00     0.156 HD
ENDBRANCH   7  22
TORSDOF 5
