REMARK  4 active torsions:
REMARK  status: ('A' for Active; 'I' for Inactive)
REMARK    1  A    between atoms: C7_7  and  C8_8 
REMARK    2  A    between atoms: C8_8  and  N1_9 
REMARK    3  A    between atoms: C15_19  and  C16_20 
REMARK    4  A    between atoms: C19_23  and  O4_26 
ROOT
ATOM      1  C1  <0> d   1       4.457   2.930  -8.873  0.00  0.00     0.049 C 
ATOM      2  C2  <0> d   1       4.247   1.529  -8.359  0.00  0.00    -0.048 A 
ATOM      3  C3  <0> d   1       3.683   1.337  -7.113  0.00  0.00     0.045 A 
ATOM      4  C4  <0> d   1       3.482   0.052  -6.624  0.00  0.00     0.094 A 
ATOM      5  C5  <0> d   1       3.861  -1.044  -7.415  0.00  0.00     0.088 A 
ATOM      6  C6  <0> d   1       4.432  -0.841  -8.676  0.00  0.00     0.133 A 
ATOM      7  C7  <0> d   1       4.621   0.451  -9.141  0.00  0.00     0.013 A 
ATOM      8  O2  <0> d   1       4.798  -1.901  -9.439  0.00  0.00    -0.190 OA
ATOM      9  C13 <0> d   1       3.528  -2.252  -6.641  0.00  0.00     0.221 A 
ATOM     10  O3  <0> d   1       3.695  -3.415  -6.965  0.00  0.00    -0.284 OA
ATOM     11  C14 <0> d   1       2.949  -1.740  -5.390  0.00  0.00     0.128 A 
ATOM     12  C15 <0> d   1       2.490  -2.488  -4.354  0.00  0.00     0.053 C 
ATOM     13  O5  <0> d   1       2.953  -0.388  -5.461  0.00  0.00    -0.306 OA
ENDROOT
BRANCH  12  14
ATOM     14  C16 <0> d   1       1.834  -1.837  -3.213  0.00  0.00    -0.033 A 
ATOM     15  C21 <0> d   1       1.244  -2.611  -2.205  0.00  0.00     0.014 A 
ATOM     16  C20 <0> d   1       0.635  -1.995  -1.136  0.00  0.00     0.037 A 
ATOM     17  C19 <0> d   1       0.595  -0.607  -1.060  0.00  0.00     0.068 A 
ATOM     18  C18 <0> d   1       1.178   0.166  -2.057  0.00  0.00     0.037 A 
ATOM     19  C17 <0> d   1       1.795  -0.439  -3.129  0.00  0.00     0.014 A 
BRANCH  17  20
ATOM     20  O4  <0> d   1      -0.013  -0.005  -0.006  0.00  0.00    -0.356 OA
ATOM     21  C22 <0> d   1      -0.592  -0.859   0.983  0.00  0.00     0.210 C 
ENDBRANCH  17  20
ENDBRANCH  12  14
BRANCH   7  22
ATOM     22  C8  <0> d   1       5.234   0.682 -10.498  0.00  0.00     0.314 C 
BRANCH  22  23
ATOM     23  N1  <0> d   1       6.694   0.778 -10.366  0.00  0.00     0.096 N 
ATOM     24  C12 <0> d   1       7.345   0.765 -11.684  0.00  0.00     0.299 C 
ATOM     25  C11 <0> d   1       8.864   0.807 -11.498  0.00  0.00     0.198 C 
ATOM     26  O1  <0> d   1       9.213   1.964 -10.734  0.00  0.00    -0.388 OA
ATOM     27  C10 <0> d   1       8.598   2.009  -9.444  0.00  0.00     0.198 C 
ATOM     28  C9  <0> d   1       7.076   1.979  -9.608  0.00  0.00     0.299 C 
ENDBRANCH  22  23
ENDBRANCH   7  22
TORSDOF 4
