REMARK  7 active torsions:
REMARK  status: ('A' for Active; 'I' for Inactive)
REMARK    1  A    between atoms: C2_2  and  N1_3 
REMARK    2  A    between atoms: N2_6  and  C7_9 
REMARK    3  A    between atoms: C7_9  and  C8_10 
REMARK    4  A    between atoms: C9_11  and  O5_31 
REMARK    5  A    between atoms: C15_19  and  C17_21 
REMARK    6  A    between atoms: C19_23  and  O4_29 
REMARK    7  A    between atoms: C22_26  and  O3_27 
ROOT
ATOM      1  C8  <0> d   1      -2.526   2.964   9.630  0.00  0.00     0.035 A 
ATOM      2  C9  <0> d   1      -3.795   2.531   9.977  0.00  0.00     0.076 A 
ATOM      3  C10 <0> d   1      -4.500   1.669   9.141  0.00  0.00     0.038 A 
ATOM      4  C11 <0> d   1      -3.950   1.241   7.968  0.00  0.00     0.017 A 
ATOM      5  C12 <0> d   1      -2.666   1.669   7.599  0.00  0.00    -0.000 A 
ATOM      6  C13 <0> d   1      -1.950   2.539   8.441  0.00  0.00     0.100 A 
ATOM      7  O1  <0> d   1      -0.712   2.961   8.103  0.00  0.00    -0.273 OA
ATOM      8  C14 <0> d   1      -0.130   2.566   6.958  0.00  0.00     0.299 A 
ATOM      9  O2  <0> d   1       0.986   2.962   6.677  0.00  0.00    -0.259 OA
ATOM     10  C15 <0> d   1      -0.835   1.660   6.048  0.00  0.00     0.053 A 
ATOM     11  C16 <0> d   1      -2.092   1.230   6.379  0.00  0.00     0.032 A 
ENDROOT
BRANCH   1  12
ATOM     12  C7  <0> d   1      -1.771   3.896  10.543  0.00  0.00     0.279 C 
BRANCH  12  13
ATOM     13  N2  <0> d   1      -2.077   5.287  10.183  0.00  0.00    -0.064 N 
ATOM     14  C4  <0> d   1      -1.553   6.219  11.191  0.00  0.00     0.265 C 
ATOM     15  C3  <0> d   1      -1.960   7.648  10.822  0.00  0.00     0.300 C 
ATOM     16  N1  <0> d   1      -1.439   7.973   9.487  0.00  0.00     0.091 N 
ATOM     17  C6  <0> d   1      -1.964   7.041   8.479  0.00  0.00     0.300 C 
ATOM     18  C5  <0> d   1      -1.556   5.613   8.848  0.00  0.00     0.265 C 
ATOM     19  H29 <0> d   1      -3.171   5.396  10.157  0.00  0.00     0.280 HD
BRANCH  16  20
ATOM     20  C2  <0> d   1      -1.745   9.364   9.127  0.00  0.00     0.268 C 
ATOM     21  C1  <0> d   1      -0.983   9.742   7.856  0.00  0.00     0.037 C 
ENDBRANCH  16  20
ENDBRANCH  12  13
ENDBRANCH   1  12
BRANCH   2  22
ATOM     22  O5  <0> d   1      -4.355   2.949  11.141  0.00  0.00    -0.360 OA
ATOM     23  H28 <0> d   1      -5.362   2.607  11.421  0.00  0.00     0.217 HD
ENDBRANCH   2  22
BRANCH  10  24
ATOM     24  C17 <0> d   1      -0.199   1.221   4.784  0.00  0.00     0.016 A 
ATOM     25  C22 <0> d   1       0.953   0.429   4.816  0.00  0.00     0.079 A 
ATOM     26  C21 <0> d   1       1.543   0.021   3.631  0.00  0.00     0.040 A 
ATOM     27  C20 <0> d   1       0.995   0.396   2.418  0.00  0.00     0.039 A 
ATOM     28  C19 <0> d   1      -0.148   1.182   2.380  0.00  0.00     0.069 A 
ATOM     29  C18 <0> d   1      -0.744   1.599   3.558  0.00  0.00     0.052 A 
BRANCH  25  30
ATOM     30  O3  <0> d   1       1.493   0.060   6.008  0.00  0.00    -0.355 OA
ATOM     31  C23 <0> d   1       2.670  -0.749   5.964  0.00  0.00     0.210 C 
ENDBRANCH  25  30
BRANCH  28  32
ATOM     32  O4  <0> d   1      -0.682   1.547   1.184  0.00  0.00    -0.356 OA
ATOM     33  C24 <0> d   1      -0.013   1.086   0.008  0.00  0.00     0.210 C 
ENDBRANCH  28  32
ENDBRANCH  10  24
TORSDOF 7
