REMARK  9 active torsions:
REMARK  status: ('A' for Active; 'I' for Inactive)
REMARK    1  A    between atoms: C2_2  and  C4_4 
REMARK    2  A    between atoms: C4_4  and  O1_5 
REMARK    3  A    between atoms: O1_5  and  C5_6 
REMARK    4  A    between atoms: C7_8  and  O2_9 
REMARK    5  A    between atoms: C8_10  and  C9_11 
REMARK    6  A    between atoms: C10_12  and  O3_18 
REMARK    7  A    between atoms: C12_15  and  N3_17 
REMARK    8  A    between atoms: O3_18  and  C13_19 
REMARK    9  A    between atoms: C18_24  and  O4_25 
ROOT
ATOM      1  C9  <0> d   1      -0.082  -5.536  -5.512  0.00  0.00     0.124 A 
ATOM      2  C10 <0> d   1      -0.181  -5.013  -6.810  0.00  0.00     0.124 A 
ATOM      3  C11 <0> d   1      -0.258  -5.901  -7.873  0.00  0.00     0.176 A 
ATOM      4  N1  <0> d   1      -0.236  -7.203  -7.632  0.00  0.00    -0.073 NA
ATOM      5  C12 <0> d   1      -0.141  -7.667  -6.395  0.00  0.00     0.720 A 
ATOM      6  N2  <0> d   1      -0.060  -6.858  -5.350  0.00  0.00    -0.060 NA
ENDROOT
BRANCH   1   7
ATOM      7  C8  <0> d   1       0.004  -4.634  -4.342  0.00  0.00     0.029 A 
ATOM      8  C7  <0> d   1      -0.810  -4.854  -3.224  0.00  0.00     0.081 A 
ATOM      9  C6  <0> d   1      -0.726  -4.006  -2.134  0.00  0.00     0.074 A 
ATOM     10  C5  <0> d   1       0.165  -2.942  -2.149  0.00  0.00     0.071 A 
ATOM     11  C21 <0> d   1       0.969  -2.720  -3.260  0.00  0.00     0.038 A 
ATOM     12  C20 <0> d   1       0.895  -3.562  -4.349  0.00  0.00     0.019 A 
BRANCH   8  13
ATOM     13  O2  <0> d   1      -1.681  -5.896  -3.210  0.00  0.00    -0.360 OA
ATOM     14  H21 <0> d   1      -2.557  -5.681  -3.559  0.00  0.00     0.217 HD
ENDBRANCH   8  13
BRANCH  10  15
ATOM     15  O1  <0> d   1       0.246  -2.111  -1.078  0.00  0.00    -0.347 OA
BRANCH  15  16
ATOM     16  C4  <0> d   1       1.179  -1.032  -1.162  0.00  0.00     0.208 C 
BRANCH  16  17
ATOM     17  C2  <0> d   1       1.130  -0.225   0.109  0.00  0.00    -0.069 C 
ATOM     18  C1  <0> d   1       2.025   0.977   0.273  0.00  0.00     0.044 C 
ATOM     19  C3  <0> d   1       0.310  -0.568   1.071  0.00  0.00     0.016 C 
ENDBRANCH  16  17
ENDBRANCH  15  16
ENDBRANCH  10  15
ENDBRANCH   1   7
BRANCH   2  20
ATOM     20  O3  <0> d   1      -0.201  -3.670  -7.021  0.00  0.00    -0.304 OA
BRANCH  20  21
ATOM     21  C13 <0> d   1      -0.412  -3.226  -8.288  0.00  0.00     0.109 A 
ATOM     22  C18 <0> d   1      -1.710  -3.079  -8.769  0.00  0.00     0.102 A 
ATOM     23  C17 <0> d   1      -1.919  -2.620 -10.060  0.00  0.00     0.039 A 
ATOM     24  C16 <0> d   1      -0.840  -2.321 -10.870  0.00  0.00     0.003 A 
ATOM     25  C15 <0> d   1       0.449  -2.472 -10.395  0.00  0.00     0.003 A 
ATOM     26  C14 <0> d   1       0.665  -2.924  -9.106  0.00  0.00     0.040 A 
BRANCH  22  27
ATOM     27  O4  <0> d   1      -2.770  -3.380  -7.972  0.00  0.00    -0.353 OA
ATOM     28  C19 <0> d   1      -4.073  -3.205  -8.533  0.00  0.00     0.210 C 
ENDBRANCH  22  27
ENDBRANCH  20  21
ENDBRANCH   2  20
BRANCH   5  29
ATOM     29  N3  <0> d   1      -0.122  -9.038  -6.189  0.00  0.00    -0.231 N 
ATOM     30  H10 <0> d   1      -0.177  -9.643  -6.945  0.00  0.00     0.174 HD
ATOM     31  H11 <0> d   1      -0.053  -9.392  -5.288  0.00  0.00     0.174 HD
ENDBRANCH   5  29
TORSDOF 9
