REMARK  7 active torsions:
REMARK  status: ('A' for Active; 'I' for Inactive)
REMARK    1  A    between atoms: C3_3  and  O3_23 
REMARK    2  A    between atoms: C6_6  and  C8_9 
REMARK    3  A    between atoms: C9_10  and  C11_15 
REMARK    4  A    between atoms: C14_18  and  O2_21 
REMARK    5  A    between atoms: O3_23  and  C18_24 
REMARK    6  A    between atoms: C18_24  and  C19_25 
REMARK    7  A    between atoms: C19_25  and  N3_26 
ROOT
ATOM      1  C1  <0> d   1       0.754   1.407  -1.265  0.00  0.00     0.054 C 
ATOM      2  C2  <0> d   1       0.498  -0.038  -0.921  0.00  0.00     0.009 A 
ATOM      3  C3  <0> d   1       0.369  -0.980  -1.932  0.00  0.00     0.077 A 
ATOM      4  C4  <0> d   1       0.134  -2.312  -1.619  0.00  0.00     0.038 A 
ATOM      5  C5  <0> d   1       0.026  -2.707  -0.302  0.00  0.00     0.020 A 
ATOM      6  C6  <0> d   1       0.154  -1.768   0.719  0.00  0.00     0.033 A 
ATOM      7  C7  <0> d   1       0.397  -0.426   0.404  0.00  0.00     0.128 A 
ATOM      8  O1  <0> d   1       0.528   0.493   1.395  0.00  0.00    -0.190 OA
ENDROOT
BRANCH   6   9
ATOM      9  C8  <0> d   1       0.039  -2.189   2.136  0.00  0.00     0.102 A 
ATOM     10  C9  <0> d   1      -0.968  -3.027   2.678  0.00  0.00     0.022 A 
ATOM     11  C10 <0> d   1      -0.711  -3.167   4.009  0.00  0.00     0.124 A 
ATOM     12  N1  <0> d   1       0.399  -2.454   4.293  0.00  0.00    -0.288 N 
ATOM     13  H1  <0> d   1       0.813  -2.373   5.166  0.00  0.00     0.188 HD
ATOM     14  N2  <0> d   1       0.855  -1.857   3.112  0.00  0.00    -0.174 NA
BRANCH  10  15
ATOM     15  C11 <0> d   1      -2.095  -3.640   1.933  0.00  0.00    -0.022 A 
ATOM     16  C16 <0> d   1      -2.309  -5.016   1.998  0.00  0.00     0.015 A 
ATOM     17  C15 <0> d   1      -3.361  -5.582   1.308  0.00  0.00     0.037 A 
ATOM     18  C14 <0> d   1      -4.199  -4.785   0.541  0.00  0.00     0.068 A 
ATOM     19  C13 <0> d   1      -3.985  -3.415   0.470  0.00  0.00     0.037 A 
ATOM     20  C12 <0> d   1      -2.938  -2.842   1.162  0.00  0.00     0.015 A 
BRANCH  18  21
ATOM     21  O2  <0> d   1      -5.232  -5.346  -0.141  0.00  0.00    -0.356 OA
ATOM     22  C17 <0> d   1      -5.395  -6.761  -0.023  0.00  0.00     0.210 C 
ENDBRANCH  18  21
ENDBRANCH  10  15
ENDBRANCH   6   9
BRANCH   3  23
ATOM     23  O3  <0> d   1       0.474  -0.597  -3.231  0.00  0.00    -0.349 OA
BRANCH  23  24
ATOM     24  C18 <0> d   1       0.332  -1.617  -4.221  0.00  0.00     0.203 C 
BRANCH  24  25
ATOM     25  C19 <0> d   1       0.479  -1.000  -5.614  0.00  0.00     0.261 C 
BRANCH  25  26
ATOM     26  N3  <0> d   1       1.843  -0.480  -5.778  0.00  0.00    -0.069 N 
ATOM     27  C24 <0> d   1       2.795  -1.598  -5.768  0.00  0.00     0.235 C 
ATOM     28  C23 <0> d   1       4.224  -1.056  -5.856  0.00  0.00     0.032 C 
ATOM     29  C22 <0> d   1       4.382  -0.260  -7.155  0.00  0.00    -0.015 C 
ATOM     30  C21 <0> d   1       3.335   0.857  -7.188  0.00  0.00     0.032 C 
ATOM     31  C25 <0> d   1       5.784   0.351  -7.213  0.00  0.00     0.010 C 
ATOM     32  C20 <0> d   1       1.939   0.245  -7.050  0.00  0.00     0.235 C 
ATOM     33  H31 <0> d   1       2.056   0.148  -5.018  0.00  0.00     0.280 HD
ENDBRANCH  25  26
ENDBRANCH  24  25
ENDBRANCH  23  24
ENDBRANCH   3  23
TORSDOF 7
