REMARK  3 active torsions:
REMARK  status: ('A' for Active; 'I' for Inactive)
REMARK    1  A    between atoms: N2_5  and  C6_8 
REMARK    2  A    between atoms: C6_8  and  C7_9 
REMARK    3  A    between atoms: C14_17  and  C15_18 
ROOT
ATOM      1  C7  <0> d   1      -0.795   1.621  -1.174  0.00  0.00     0.041 A 
ATOM      2  C8  <0> d   1      -1.815   0.866  -1.731  0.00  0.00     0.118 A 
ATOM      3  C9  <0> d   1      -2.495   1.316  -2.859  0.00  0.00     0.041 A 
ATOM      4  C10 <0> d   1      -2.152   2.506  -3.437  0.00  0.00     0.021 A 
ATOM      5  C11 <0> d   1      -1.123   3.273  -2.890  0.00  0.00     0.051 A 
ATOM      6  C12 <0> d   1      -0.434   2.832  -1.749  0.00  0.00     0.101 A 
ATOM      7  O1  <0> d   1       0.511   3.735  -1.408  0.00  0.00    -0.305 OA
ATOM      8  C13 <0> d   1       0.525   4.793  -2.252  0.00  0.00     0.127 A 
ATOM      9  C14 <0> d   1       1.353   5.863  -2.181  0.00  0.00     0.053 C 
ATOM     10  C20 <0> d   1      -0.525   4.568  -3.263  0.00  0.00     0.218 A 
ATOM     11  O2  <0> d   1      -0.829   5.290  -4.196  0.00  0.00    -0.284 OA
ATOM     12  O3  <0> d   1      -2.159  -0.321  -1.167  0.00  0.00    -0.191 OA
ENDROOT
BRANCH   1  13
ATOM     13  C6  <0> d   1      -0.072   1.123   0.051  0.00  0.00     0.317 C 
BRANCH  13  14
ATOM     14  N2  <0> d   1      -0.754   1.617   1.256  0.00  0.00     0.096 N 
ATOM     15  C3  <0> d   1      -0.227   0.966   2.463  0.00  0.00     0.300 C 
ATOM     16  C2  <0> d   1      -1.015   1.447   3.684  0.00  0.00     0.264 C 
ATOM     17  N1  <0> d   1      -0.908   2.909   3.788  0.00  0.00    -0.072 N 
ATOM     18  C1  <0> d   1      -1.589   3.402   4.992  0.00  0.00     0.269 C 
ATOM     19  C5  <0> d   1      -1.435   3.560   2.580  0.00  0.00     0.264 C 
ATOM     20  H21 <0> d   1       0.158   3.166   3.875  0.00  0.00     0.279 HD
ATOM     21  C4  <0> d   1      -0.647   3.079   1.360  0.00  0.00     0.300 C 
ENDBRANCH  13  14
ENDBRANCH   1  13
BRANCH   9  22
ATOM     22  C15 <0> d   1       2.279   6.003  -1.047  0.00  0.00    -0.031 A 
ATOM     23  C19 <0> d   1       3.056   7.160  -0.888  0.00  0.00     0.030 A 
ATOM     24  C18 <0> d   1       3.911   7.247   0.191  0.00  0.00     0.117 A 
ATOM     25  N3  <0> d   1       4.003   6.263   1.065  0.00  0.00    -0.273 NA
ATOM     26  C17 <0> d   1       3.291   5.158   0.955  0.00  0.00     0.117 A 
ATOM     27  C16 <0> d   1       2.407   4.985  -0.090  0.00  0.00     0.030 A 
ENDBRANCH   9  22
TORSDOF 3
