REMARK  4 active torsions:
REMARK  status: ('A' for Active; 'I' for Inactive)
REMARK    1  A    between atoms: N2_5  and  C6_8 
REMARK    2  A    between atoms: C6_8  and  C7_9 
REMARK    3  A    between atoms: C8_10  and  O3_26 
REMARK    4  A    between atoms: C14_18  and  C16_20 
ROOT
ATOM      1  C7  <0> d   1       2.188  -4.533   1.006  0.00  0.00     0.038 A 
ATOM      2  C8  <0> d   1       3.529  -4.739   0.724  0.00  0.00     0.076 A 
ATOM      3  C9  <0> d   1       4.397  -5.192   1.716  0.00  0.00     0.038 A 
ATOM      4  C10 <0> d   1       3.936  -5.450   2.974  0.00  0.00     0.017 A 
ATOM      5  C11 <0> d   1       2.578  -5.271   3.271  0.00  0.00    -0.000 A 
ATOM      6  C12 <0> d   1       1.706  -4.778   2.281  0.00  0.00     0.100 A 
ATOM      7  O1  <0> d   1       0.408  -4.533   2.583  0.00  0.00    -0.273 OA
ATOM      8  C13 <0> d   1      -0.129  -5.257   3.592  0.00  0.00     0.299 C 
ATOM      9  O2  <0> d   1      -1.276  -5.661   3.536  0.00  0.00    -0.259 OA
ATOM     10  C14 <0> d   1       0.720  -5.542   4.761  0.00  0.00     0.051 C 
ATOM     11  C15 <0> d   1       2.077  -5.567   4.566  0.00  0.00     0.032 C 
ENDROOT
BRANCH   1  12
ATOM     12  C6  <0> d   1       1.257  -4.037  -0.071  0.00  0.00     0.317 C 
BRANCH  12  13
ATOM     13  N2  <0> d   1       1.237  -2.568  -0.063  0.00  0.00     0.096 N 
ATOM     14  C3  <0> d   1       0.533  -2.045  -1.242  0.00  0.00     0.303 C 
ATOM     15  C2  <0> d   1       0.603  -0.516  -1.238  0.00  0.00     0.302 C 
ATOM     16  N1  <0> d   1       0.002  -0.004   0.002  0.00  0.00     0.087 N 
ATOM     17  C1  <0> d   1      -0.018   1.465   0.010  0.00  0.00     0.310 C 
ATOM     18  C5  <0> d   1       0.706  -0.528   1.181  0.00  0.00     0.302 C 
ATOM     19  C4  <0> d   1       0.636  -2.057   1.176  0.00  0.00     0.303 C 
ENDBRANCH  12  13
ENDBRANCH   1  12
BRANCH   2  20
ATOM     20  O3  <0> d   1       4.000  -4.500  -0.526  0.00  0.00    -0.360 OA
ATOM     21  H22 <0> d   1       4.313  -3.595  -0.662  0.00  0.00     0.217 HD
ENDBRANCH   2  20
BRANCH  10  22
ATOM     22  C16 <0> d   1       0.129  -5.803   6.094  0.00  0.00    -0.020 A 
ATOM     23  C21 <0> d   1      -0.574  -4.798   6.758  0.00  0.00     0.012 A 
ATOM     24  C20 <0> d   1      -1.127  -5.050   7.996  0.00  0.00     0.001 A 
ATOM     25  C19 <0> d   1      -0.975  -6.292   8.586  0.00  0.00     0.000 A 
ATOM     26  C18 <0> d   1      -0.274  -7.291   7.935  0.00  0.00     0.001 A 
ATOM     27  C17 <0> d   1       0.279  -7.054   6.693  0.00  0.00     0.012 A 
ENDBRANCH  10  22
TORSDOF 4
