REMARK  5 active torsions:
REMARK  status: ('A' for Active; 'I' for Inactive)
REMARK    1  A    between atoms: C3_3  and  O5_30 
REMARK    2  A    between atoms: C10_12  and  C11_13 
REMARK    3  A    between atoms: C11_13  and  N1_14 
REMARK    4  A    between atoms: N2_17  and  C16_20 
REMARK    5  A    between atoms: C16_20  and  C17_21 
ROOT
ATOM      1  N1  <0> d   1       8.052  -2.652   0.029  0.00  0.00     0.096 N 
ATOM      2  C12 <0> d   1       8.359  -1.292   0.496  0.00  0.00     0.303 C 
ATOM      3  C13 <0> d   1       7.340  -0.879   1.560  0.00  0.00     0.303 C 
ATOM      4  N2  <0> d   1       5.987  -0.944   0.991  0.00  0.00     0.096 N 
ATOM      5  C14 <0> d   1       5.680  -2.304   0.525  0.00  0.00     0.303 C 
ATOM      6  C15 <0> d   1       6.699  -2.717  -0.540  0.00  0.00     0.303 C 
ENDROOT
BRANCH   1   7
ATOM      7  C11 <0> d   1       9.054  -3.114  -0.940  0.00  0.00     0.312 C 
BRANCH   7   8
ATOM      8  C10 <0> d   1       8.654  -4.468  -1.469  0.00  0.00    -0.011 A 
ATOM      9  C6  <0> d   1       8.786  -5.668  -0.641  0.00  0.00     0.007 A 
ATOM     10  C5  <0> d   1       9.288  -5.592   0.663  0.00  0.00     0.017 A 
ATOM     11  C7  <0> d   1       8.400  -6.911  -1.176  0.00  0.00     0.099 A 
ATOM     12  C4  <0> d   1       9.401  -6.727   1.413  0.00  0.00     0.038 A 
ATOM     13  C3  <0> d   1       9.021  -7.960   0.889  0.00  0.00     0.074 A 
ATOM     14  C2  <0> d   1       8.522  -8.054  -0.400  0.00  0.00     0.006 A 
ATOM     15  C1  <0> d   1       8.113  -9.393  -0.957  0.00  0.00     0.054 C 
ATOM     16  O1  <0> d   1       7.916  -6.980  -2.435  0.00  0.00    -0.274 OA
ATOM     17  C8  <0> d   1       7.791  -5.883  -3.198  0.00  0.00     0.288 A 
ATOM     18  O2  <0> d   1       7.349  -5.994  -4.328  0.00  0.00    -0.260 OA
ATOM     19  C9  <0> d   1       8.154  -4.606  -2.725  0.00  0.00     0.092 A 
BRANCH  13  20
ATOM     20  O5  <0> d   1       9.140  -9.080   1.647  0.00  0.00    -0.360 OA
ATOM     21  H24 <0> d   1       9.535  -9.011   2.672  0.00  0.00     0.217 HD
ENDBRANCH  13  20
ENDBRANCH   7   8
ENDBRANCH   1   7
BRANCH   4  22
ATOM     22  C16 <0> d   1       4.985  -0.481   1.961  0.00  0.00     0.311 C 
BRANCH  22  23
ATOM     23  C17 <0> d   1       3.653  -0.329   1.273  0.00  0.00    -0.027 A 
ATOM     24  C22 <0> d   1       3.311   0.879   0.692  0.00  0.00     0.048 A 
ATOM     25  C21 <0> d   1       2.087   1.021   0.059  0.00  0.00     0.105 A 
ATOM     26  C20 <0> d   1       1.204  -0.054   0.009  0.00  0.00     0.105 A 
ATOM     27  O3  <0> d   1       1.518   2.084  -0.581  0.00  0.00    -0.323 OA
ATOM     28  C19 <0> d   1       1.553  -1.261   0.593  0.00  0.00     0.040 A 
ATOM     29  O4  <0> d   1       0.081   0.335  -0.662  0.00  0.00    -0.323 OA
ATOM     30  C18 <0> d   1       2.776  -1.396   1.224  0.00  0.00     0.012 A 
ATOM     31  C23 <0> d   1       0.114   1.775  -0.666  0.00  0.00     0.352 C 
ENDBRANCH  22  23
ENDBRANCH   4  22
TORSDOF 5
