REMARK  7 active torsions:
REMARK  status: ('A' for Active; 'I' for Inactive)
REMARK    1  A    between atoms: C2_2  and  O1_3 
REMARK    2  A    between atoms: O1_3  and  C3_4 
REMARK    3  A    between atoms: C5_6  and  O2_7 
REMARK    4  A    between atoms: C6_8  and  C7_9 
REMARK    5  A    between atoms: C8_10  and  C11_16 
REMARK    6  A    between atoms: C10_13  and  N3_15 
REMARK    7  A    between atoms: C16_21  and  O3_22 
ROOT
ATOM      1  C7  <0> d   1      -1.978  -6.076   0.067  0.00  0.00     0.101 A 
ATOM      2  C8  <0> d   1      -0.867  -6.923  -0.123  0.00  0.00     0.025 A 
ATOM      3  C9  <0> d   1      -1.092  -8.297  -0.204  0.00  0.00     0.151 A 
ATOM      4  N1  <0> d   1      -2.329  -8.754  -0.101  0.00  0.00    -0.075 NA
ATOM      5  C10 <0> d   1      -3.351  -7.930   0.078  0.00  0.00     0.720 A 
ATOM      6  N2  <0> d   1      -3.189  -6.619   0.167  0.00  0.00    -0.062 NA
ENDROOT
BRANCH   1   7
ATOM      7  C6  <0> d   1      -1.800  -4.611   0.161  0.00  0.00     0.028 A 
ATOM      8  C5  <0> d   1      -2.367  -3.901   1.227  0.00  0.00     0.081 A 
ATOM      9  C4  <0> d   1      -2.197  -2.530   1.308  0.00  0.00     0.074 A 
ATOM     10  C3  <0> d   1      -1.466  -1.862   0.336  0.00  0.00     0.071 A 
ATOM     11  C19 <0> d   1      -0.907  -2.565  -0.725  0.00  0.00     0.038 A 
ATOM     12  C18 <0> d   1      -1.067  -3.931  -0.812  0.00  0.00     0.019 A 
BRANCH   8  13
ATOM     13  O2  <0> d   1      -3.083  -4.556   2.177  0.00  0.00    -0.360 OA
ATOM     14  H19 <0> d   1      -4.027  -4.626   1.980  0.00  0.00     0.217 HD
ENDBRANCH   8  13
BRANCH  10  15
ATOM     15  O1  <0> d   1      -1.301  -0.517   0.418  0.00  0.00    -0.351 OA
BRANCH  15  16
ATOM     16  C2  <0> d   1      -0.543   0.108  -0.619  0.00  0.00     0.171 C 
ATOM     17  C1  <0> d   1      -0.466   1.614  -0.358  0.00  0.00     0.034 C 
ENDBRANCH  15  16
ENDBRANCH  10  15
ENDBRANCH   1   7
BRANCH   2  18
ATOM     18  C11 <0> d   1       0.503  -6.368  -0.235  0.00  0.00     0.011 A 
ATOM     19  C16 <0> d   1       1.097  -5.738   0.863  0.00  0.00     0.079 A 
ATOM     20  C15 <0> d   1       2.380  -5.227   0.751  0.00  0.00     0.037 A 
ATOM     21  C14 <0> d   1       3.065  -5.331  -0.445  0.00  0.00     0.003 A 
ATOM     22  C13 <0> d   1       2.477  -5.949  -1.535  0.00  0.00     0.001 A 
ATOM     23  C12 <0> d   1       1.202  -6.467  -1.436  0.00  0.00     0.015 A 
BRANCH  19  24
ATOM     24  O3  <0> d   1       0.421  -5.632   2.037  0.00  0.00    -0.355 OA
ATOM     25  C17 <0> d   1       1.091  -4.976   3.115  0.00  0.00     0.210 C 
ENDBRANCH  19  24
ENDBRANCH   2  18
BRANCH   5  26
ATOM     26  N3  <0> d   1      -4.627  -8.456   0.181  0.00  0.00    -0.231 N 
ATOM     27  H8  <0> d   1      -4.763  -9.415   0.122  0.00  0.00     0.174 HD
ATOM     28  H9  <0> d   1      -5.386  -7.867   0.312  0.00  0.00     0.174 HD
ENDBRANCH   5  26
TORSDOF 7
