REMARK  11 active torsions:
REMARK  status: ('A' for Active; 'I' for Inactive)
REMARK    1  A    between atoms: O1_2  and  C2_3 
REMARK    2  A    between atoms: C2_3  and  C3_4 
REMARK    3  A    between atoms: C3_4  and  N1_5 
REMARK    4  A    between atoms: N1_5  and  C4_6 
REMARK    5  A    between atoms: N1_5  and  C7_10 
REMARK    6  A    between atoms: C4_6  and  C5_7 
REMARK    7  A    between atoms: C5_7  and  O2_8 
REMARK    8  A    between atoms: C7_10  and  C8_11 
REMARK    9  A    between atoms: C15_19  and  C16_20 
REMARK   10  A    between atoms: C17_21  and  C18_22 
REMARK   11  A    between atoms: C23_27  and  O4_28 
ROOT
ATOM      1  C8  <0> d   1      -0.406  -3.246  -0.622  0.00  0.00     0.039 A 
ATOM      2  C9  <0> d   1      -1.246  -3.435   0.465  0.00  0.00     0.118 A 
ATOM      3  C10 <0> d   1      -2.629  -3.420   0.300  0.00  0.00     0.041 A 
ATOM      4  C11 <0> d   1      -3.172  -3.218  -0.937  0.00  0.00     0.021 A 
ATOM      5  C12 <0> d   1      -2.339  -3.027  -2.039  0.00  0.00     0.051 A 
ATOM      6  C13 <0> d   1      -0.943  -3.034  -1.883  0.00  0.00     0.101 A 
ATOM      7  O3  <0> d   1      -0.370  -2.822  -3.088  0.00  0.00    -0.305 OA
ATOM      8  C14 <0> d   1      -1.300  -2.664  -4.058  0.00  0.00     0.127 A 
ATOM      9  C15 <0> d   1      -1.043  -2.435  -5.380  0.00  0.00     0.041 C 
ATOM     10  C25 <0> d   1      -2.589  -2.790  -3.471  0.00  0.00     0.218 A 
ATOM     11  O5  <0> d   1      -3.669  -2.707  -4.031  0.00  0.00    -0.284 OA
ATOM     12  O6  <0> d   1      -0.717  -3.636   1.698  0.00  0.00    -0.191 OA
ENDROOT
BRANCH   1  13
ATOM     13  C7  <0> d   1       1.089  -3.265  -0.431  0.00  0.00     0.279 C 
BRANCH  13  14
ATOM     14  N1  <0> d   1       1.562  -1.906  -0.134  0.00  0.00    -0.063 N 
ATOM     15  H29 <0> d   1       1.257  -1.278  -0.863  0.00  0.00     0.280 HD
BRANCH  14  16
ATOM     16  C3  <0> d   1       1.011  -1.466   1.155  0.00  0.00     0.261 C 
BRANCH  16  17
ATOM     17  C2  <0> d   1       1.359   0.006   1.382  0.00  0.00     0.194 C 
BRANCH  17  18
ATOM     18  O1  <0> d   1       0.736   0.804   0.372  0.00  0.00    -0.394 OA
ATOM     19  C1  <0> d   1       1.084   2.189   0.430  0.00  0.00     0.201 C 
ENDBRANCH  17  18
ENDBRANCH  16  17
ENDBRANCH  14  16
BRANCH  14  20
ATOM     20  C4  <0> d   1       3.029  -1.902  -0.067  0.00  0.00     0.261 C 
BRANCH  20  21
ATOM     21  C5  <0> d   1       3.604  -2.184  -1.456  0.00  0.00     0.194 C 
BRANCH  21  22
ATOM     22  O2  <0> d   1       3.306  -1.091  -2.326  0.00  0.00    -0.394 OA
ATOM     23  C6  <0> d   1       3.908  -1.195  -3.618  0.00  0.00     0.201 C 
ENDBRANCH  21  22
ENDBRANCH  20  21
ENDBRANCH  14  20
ENDBRANCH  13  14
ENDBRANCH   1  13
BRANCH   9  24
ATOM     24  C16 <0> d   1       0.285  -2.344  -5.833  0.00  0.00     0.004 C 
ATOM     25  C17 <0> d   1       0.540  -2.116  -7.146  0.00  0.00     0.014 C 
BRANCH  25  26
ATOM     26  C18 <0> d   1       1.926  -2.022  -7.619  0.00  0.00    -0.003 A 
ATOM     27  C23 <0> d   1       2.195  -1.786  -8.977  0.00  0.00     0.078 A 
ATOM     28  C22 <0> d   1       3.508  -1.693  -9.411  0.00  0.00     0.037 A 
ATOM     29  C21 <0> d   1       4.546  -1.843  -8.512  0.00  0.00     0.003 A 
ATOM     30  C20 <0> d   1       4.287  -2.081  -7.172  0.00  0.00     0.001 A 
ATOM     31  C19 <0> d   1       2.989  -2.171  -6.720  0.00  0.00     0.014 A 
BRANCH  27  32
ATOM     32  O4  <0> d   1       1.174  -1.645  -9.860  0.00  0.00    -0.355 OA
ATOM     33  C24 <0> d   1       1.524  -1.407 -11.225  0.00  0.00     0.210 C 
ENDBRANCH  27  32
ENDBRANCH  25  26
ENDBRANCH   9  24
TORSDOF 11
