REMARK  4 active torsions:
REMARK  status: ('A' for Active; 'I' for Inactive)
REMARK    1  A    between atoms: N2_5  and  C6_8 
REMARK    2  A    between atoms: C6_8  and  C7_9 
REMARK    3  A    between atoms: C8_10  and  O3_27 
REMARK    4  A    between atoms: C14_17  and  C15_18 
ROOT
ATOM      1  C7  <0> d   1       4.027   0.908   1.743  0.00  0.00     0.038 A 
ATOM      2  C8  <0> d   1       5.112   0.585   0.945  0.00  0.00     0.076 A 
ATOM      3  C9  <0> d   1       6.332   1.233   1.112  0.00  0.00     0.038 A 
ATOM      4  C10 <0> d   1       6.474   2.191   2.076  0.00  0.00     0.021 A 
ATOM      5  C11 <0> d   1       5.391   2.523   2.891  0.00  0.00     0.051 A 
ATOM      6  C12 <0> d   1       4.154   1.880   2.728  0.00  0.00     0.101 A 
ATOM      7  O1  <0> d   1       3.267   2.365   3.624  0.00  0.00    -0.305 OA
ATOM      8  C13 <0> d   1       3.816   3.318   4.411  0.00  0.00     0.128 A 
ATOM      9  C14 <0> d   1       3.189   3.998   5.404  0.00  0.00     0.054 C 
ATOM     10  C21 <0> d   1       5.218   3.485   3.994  0.00  0.00     0.218 A 
ATOM     11  O2  <0> d   1       6.048   4.247   4.457  0.00  0.00    -0.284 OA
ENDROOT
BRANCH   1  12
ATOM     12  C6  <0> d   1       2.710   0.203   1.546  0.00  0.00     0.317 C 
BRANCH  12  13
ATOM     13  N2  <0> d   1       1.896   0.945   0.574  0.00  0.00     0.096 N 
ATOM     14  C3  <0> d   1       1.904   2.384   0.871  0.00  0.00     0.300 C 
ATOM     15  C2  <0> d   1       1.114   3.129  -0.208  0.00  0.00     0.264 C 
ATOM     16  N1  <0> d   1      -0.261   2.610  -0.250  0.00  0.00    -0.072 N 
ATOM     17  C1  <0> d   1      -1.074   3.353  -1.222  0.00  0.00     0.269 C 
ATOM     18  C5  <0> d   1      -0.269   1.171  -0.546  0.00  0.00     0.264 C 
ATOM     19  H22 <0> d   1      -0.709   2.755   0.744  0.00  0.00     0.279 HD
ATOM     20  C4  <0> d   1       0.522   0.426   0.532  0.00  0.00     0.300 C 
ENDBRANCH  12  13
ENDBRANCH   1  12
BRANCH   2  21
ATOM     21  O3  <0> d   1       4.983  -0.370  -0.012  0.00  0.00    -0.360 OA
ATOM     22  H21 <0> d   1       5.841  -0.631  -0.648  0.00  0.00     0.217 HD
ENDBRANCH   2  21
BRANCH   9  23
ATOM     23  C15 <0> d   1       1.746   3.823   5.616  0.00  0.00    -0.012 A 
ATOM     24  C20 <0> d   1       1.028   4.754   6.378  0.00  0.00     0.044 A 
ATOM     25  C19 <0> d   1      -0.329   4.584   6.566  0.00  0.00     0.024 A 
ATOM     26 Cl1  <0> d   1       1.841   6.119   7.076  0.00  0.00    -0.083 Cl
ATOM     27  C18 <0> d   1      -0.977   3.493   6.015  0.00  0.00     0.002 A 
ATOM     28  C17 <0> d   1      -0.272   2.566   5.266  0.00  0.00     0.001 A 
ATOM     29  C16 <0> d   1       1.082   2.722   5.062  0.00  0.00     0.013 A 
ENDBRANCH   9  23
TORSDOF 4
