REMARK  3 active torsions:
REMARK  status: ('A' for Active; 'I' for Inactive)
REMARK    1  A    between atoms: C3_3  and  C11_12 
REMARK    2  A    between atoms: C18_20  and  C20_23 
REMARK    3  A    between atoms: C20_23  and  N1_24 
ROOT
ATOM      1  C11 <0> d   1       2.837  -1.570   0.377  0.00  0.00     0.051 C 
ATOM      2  C12 <0> d   1       3.307  -0.967  -0.755  0.00  0.00     0.127 A 
ATOM      3  C13 <0> d   1       4.647  -1.018  -1.228  0.00  0.00     0.218 A 
ATOM      4  O2  <0> d   1       5.592  -1.595  -0.716  0.00  0.00    -0.284 OA
ATOM      5  C14 <0> d   1       4.648  -0.225  -2.470  0.00  0.00     0.051 A 
ATOM      6  C15 <0> d   1       5.635   0.105  -3.398  0.00  0.00     0.021 A 
ATOM      7  C16 <0> d   1       5.322   0.884  -4.476  0.00  0.00     0.041 A 
ATOM      8  C17 <0> d   1       4.021   1.348  -4.651  0.00  0.00     0.118 A 
ATOM      9  C18 <0> d   1       3.030   1.028  -3.737  0.00  0.00     0.041 A 
ATOM     10  C19 <0> d   1       3.332   0.238  -2.637  0.00  0.00     0.101 A 
ATOM     11  O3  <0> d   1       2.578  -0.218  -1.614  0.00  0.00    -0.305 OA
ATOM     12  O5  <0> d   1       3.721   2.121  -5.726  0.00  0.00    -0.191 OA
ENDROOT
BRANCH   1  13
ATOM     13  C3  <0> d   1       1.457  -1.572   0.651  0.00  0.00    -0.026 C 
ATOM     14  C2  <0> d   1       0.483  -1.024  -0.359  0.00  0.00     0.158 C 
ATOM     15  C1  <0> d   1       0.251   0.463  -0.082  0.00  0.00     0.045 C 
ATOM     16  O1  <0> d   1      -0.762  -1.718  -0.281  0.00  0.00    -0.341 OA
ATOM     17  C10 <0> d   1      -1.307  -1.881   0.950  0.00  0.00     0.080 A 
ATOM     18  C5  <0> d   1      -0.458  -2.065   2.056  0.00  0.00    -0.002 A 
ATOM     19  C9  <0> d   1      -2.678  -1.871   1.135  0.00  0.00     0.037 A 
ATOM     20  C4  <0> d   1       0.994  -2.070   1.832  0.00  0.00     0.024 C 
ATOM     21  C6  <0> d   1      -0.999  -2.236   3.331  0.00  0.00     0.014 A 
ATOM     22  C7  <0> d   1      -2.368  -2.223   3.495  0.00  0.00     0.001 A 
ATOM     23  C8  <0> d   1      -3.203  -2.041   2.403  0.00  0.00     0.003 A 
ENDBRANCH   1  13
BRANCH   9  24
ATOM     24  C20 <0> d   1       1.626   1.537  -3.938  0.00  0.00     0.317 C 
BRANCH  24  25
ATOM     25  N1  <0> d   1       1.531   2.918  -3.448  0.00  0.00     0.097 N 
ATOM     26  C24 <0> d   1       0.303   3.566  -3.932  0.00  0.00     0.299 C 
ATOM     27  C23 <0> d   1       0.274   5.018  -3.449  0.00  0.00     0.198 C 
ATOM     28  O4  <0> d   1       0.373   5.043  -2.023  0.00  0.00    -0.388 OA
ATOM     29  C22 <0> d   1       1.557   4.421  -1.516  0.00  0.00     0.198 C 
ATOM     30  C21 <0> d   1       1.599   2.963  -1.980  0.00  0.00     0.299 C 
ENDBRANCH  24  25
ENDBRANCH   9  24
TORSDOF 3
