REMARK  8 active torsions:
REMARK  status: ('A' for Active; 'I' for Inactive)
REMARK    1  A    between atoms: O1_2  and  C2_3 
REMARK    2  A    between atoms: C7_8  and  C8_9 
REMARK    3  A    between atoms: C9_10  and  C12_19 
REMARK    4  A    between atoms: C10_14  and  C11_15 
REMARK    5  A    between atoms: C15_22  and  O3_26 
REMARK    6  A    between atoms: O3_26  and  C18_27 
REMARK    7  A    between atoms: C18_27  and  C19_28 
REMARK       I    between atoms: C19_28  and  N3_30 
REMARK    8  A    between atoms: N3_30  and  N4_31 
ROOT
ATOM      1  C8  <0> d   1      -0.006  -2.831  -0.013  0.00  0.00     0.041 A 
ATOM      2  C9  <0> d   1       0.691  -3.275  -1.165  0.00  0.00     0.103 A 
ATOM      3  N1  <0> d   1       1.748  -3.946  -0.763  0.00  0.00    -0.173 NA
ATOM      4  H1  <0> d   1       2.430  -4.378   1.196  0.00  0.00     0.189 HD
ATOM      5  N2  <0> d   1       1.761  -3.954   0.637  0.00  0.00    -0.272 N 
ATOM      6  C10 <0> d   1       0.688  -3.264   1.077  0.00  0.00     0.147 A 
ENDROOT
BRANCH   2   7
ATOM      7  C12 <0> d   1       0.297  -3.027  -2.573  0.00  0.00     0.032 A 
ATOM      8  C17 <0> d   1       1.081  -3.526  -3.619  0.00  0.00     0.122 A 
ATOM      9  C16 <0> d   1       0.705  -3.296  -4.931  0.00  0.00     0.077 A 
ATOM     10  O2  <0> d   1       2.204  -4.240  -3.347  0.00  0.00    -0.191 OA
ATOM     11  C15 <0> d   1      -0.439  -2.562  -5.207  0.00  0.00     0.072 A 
ATOM     12  C14 <0> d   1      -1.214  -2.061  -4.169  0.00  0.00     0.038 A 
ATOM     13  C13 <0> d   1      -0.851  -2.291  -2.858  0.00  0.00     0.019 A 
BRANCH  11  14
ATOM     14  O3  <0> d   1      -0.803  -2.333  -6.495  0.00  0.00    -0.342 OA
BRANCH  14  15
ATOM     15  C18 <0> d   1       0.040  -2.877  -7.514  0.00  0.00     0.279 C 
BRANCH  15  16
ATOM     16  C19 <0> d   1      -0.518  -2.524  -8.868  0.00  0.00     0.255 C 
ATOM     17  O4  <0> d   1      -1.536  -1.871  -8.954  0.00  0.00    -0.270 OA
ATOM     18  N3  <0> d   1       0.115  -2.934  -9.986  0.00  0.00    -0.292 N 
ATOM     19  H14 <0> d   1       0.929  -3.456  -9.917  0.00  0.00     0.183 HD
BRANCH  18  20
ATOM     20  N4  <0> d   1      -0.391  -2.614 -11.214  0.00  0.00    -0.247 NA
ATOM     21  H15 <0> d   1       0.188  -2.987 -11.951  0.00  0.00     0.143 HD
ATOM     22  H16 <0> d   1      -1.344  -2.931 -11.306  0.00  0.00     0.143 HD
ENDBRANCH  18  20
ENDBRANCH  15  16
ENDBRANCH  14  15
ENDBRANCH  11  14
ENDBRANCH   2   7
BRANCH   1  23
ATOM     23  C7  <0> d   1      -1.257  -2.034   0.003  0.00  0.00     0.012 A 
ATOM     24  C2  <0> d   1      -1.200  -0.637   0.010  0.00  0.00     0.079 A 
ATOM     25  C3  <0> d   1      -2.374   0.099   0.019  0.00  0.00     0.037 A 
ATOM     26  C4  <0> d   1      -3.596  -0.546   0.027  0.00  0.00     0.003 A 
ATOM     27  C5  <0> d   1      -3.656  -1.929   0.026  0.00  0.00     0.001 A 
ATOM     28  C6  <0> d   1      -2.494  -2.674   0.017  0.00  0.00     0.015 A 
BRANCH  24  29
ATOM     29  O1  <0> d   1       0.002  -0.004   0.002  0.00  0.00    -0.355 OA
ATOM     30  C1  <0> d   1      -0.017   1.425   0.010  0.00  0.00     0.210 C 
ENDBRANCH  24  29
ENDBRANCH   1  23
BRANCH   6  31
ATOM     31  C11 <0> d   1       0.319  -3.021   2.518  0.00  0.00     0.434 C 
ATOM     32  F1  <0> d   1       1.271  -3.620   3.350  0.00  0.00    -0.165 F 
ATOM     33  F2  <0> d   1       0.285  -1.644   2.764  0.00  0.00    -0.165 F 
ATOM     34  F3  <0> d   1      -0.940  -3.572   2.777  0.00  0.00    -0.165 F 
ENDBRANCH   6  31
TORSDOF 8
