REMARK  7 active torsions:
REMARK  status: ('A' for Active; 'I' for Inactive)
REMARK    1  A    between atoms: C6_6  and  C7_7 
REMARK    2  A    between atoms: C13_14  and  O4_28 
REMARK    3  A    between atoms: C14_15  and  C16_18 
REMARK    4  A    between atoms: C16_18  and  N1_19 
REMARK    5  A    between atoms: N2_22  and  C21_25 
REMARK    6  A    between atoms: C21_25  and  C22_26 
REMARK    7  A    between atoms: C22_26  and  O3_27 
ROOT
ATOM      1  C7  <0> d   1       1.569  -2.015  -1.053  0.00  0.00     0.053 C 
ATOM      2  C8  <0> d   1       1.126  -0.733  -1.023  0.00  0.00     0.127 A 
ATOM      3  C9  <0> d   1      -0.271  -0.292  -1.168  0.00  0.00     0.218 A 
ATOM      4  O1  <0> d   1      -1.258  -0.986  -1.338  0.00  0.00    -0.284 OA
ATOM      5  C10 <0> d   1      -0.207   1.177  -1.063  0.00  0.00     0.051 A 
ATOM      6  C11 <0> d   1      -1.176   2.180  -1.113  0.00  0.00     0.021 A 
ATOM      7  C12 <0> d   1      -0.807   3.489  -0.985  0.00  0.00     0.038 A 
ATOM      8  C13 <0> d   1       0.531   3.824  -0.795  0.00  0.00     0.076 A 
ATOM      9  C14 <0> d   1       1.502   2.838  -0.739  0.00  0.00     0.038 A 
ATOM     10  C15 <0> d   1       1.145   1.502  -0.872  0.00  0.00     0.101 A 
ATOM     11  O2  <0> d   1       1.887   0.373  -0.854  0.00  0.00    -0.305 OA
ENDROOT
BRANCH   9  12
ATOM     12  C16 <0> d   1       2.947   3.215  -0.533  0.00  0.00     0.317 C 
BRANCH  12  13
ATOM     13  N1  <0> d   1       3.588   3.429  -1.837  0.00  0.00     0.096 N 
ATOM     14  C20 <0> d   1       4.922   4.024  -1.677  0.00  0.00     0.303 C 
ATOM     15  C19 <0> d   1       5.521   4.304  -3.057  0.00  0.00     0.302 C 
ATOM     16  N2  <0> d   1       5.596   3.050  -3.819  0.00  0.00     0.093 N 
ATOM     17  C18 <0> d   1       4.262   2.454  -3.979  0.00  0.00     0.302 C 
ATOM     18  C17 <0> d   1       3.662   2.174  -2.599  0.00  0.00     0.303 C 
BRANCH  16  19
ATOM     19  C21 <0> d   1       6.237   3.264  -5.124  0.00  0.00     0.298 C 
BRANCH  19  20
ATOM     20  C22 <0> d   1       5.297   4.062  -6.029  0.00  0.00     0.194 C 
BRANCH  20  21
ATOM     21  O3  <0> d   1       5.138   5.382  -5.505  0.00  0.00    -0.399 OA
ATOM     22  H22 <0> d   1       4.493   6.106  -6.024  0.00  0.00     0.209 HD
ENDBRANCH  20  21
ENDBRANCH  19  20
ENDBRANCH  16  19
ENDBRANCH  12  13
ENDBRANCH   9  12
BRANCH   8  23
ATOM     23  O4  <0> d   1       0.886   5.127  -0.664  0.00  0.00    -0.360 OA
ATOM     24  H23 <0> d   1       1.942   5.397  -0.513  0.00  0.00     0.217 HD
ENDBRANCH   8  23
BRANCH   1  25
ATOM     25  C6  <0> d   1       3.011  -2.295  -1.002  0.00  0.00    -0.033 A 
ATOM     26  C1  <0> d   1       3.480  -3.602  -1.174  0.00  0.00     0.013 A 
ATOM     27  C2  <0> d   1       4.834  -3.856  -1.130  0.00  0.00     0.020 A 
ATOM     28  C3  <0> d   1       5.729  -2.823  -0.905  0.00  0.00     0.011 A 
ATOM     29  C4  <0> d   1       5.272  -1.527  -0.729  0.00  0.00     0.020 A 
ATOM     30 Br1  <0> d   1       7.584  -3.183  -0.840  0.00  0.00    -0.051 Br
ATOM     31  C5  <0> d   1       3.922  -1.256  -0.775  0.00  0.00     0.013 A 
ENDBRANCH   1  25
TORSDOF 7
