REMARK  4 active torsions:
REMARK  status: ('A' for Active; 'I' for Inactive)
REMARK    1  A    between atoms: C2_2  and  C3_3 
REMARK    2  A    between atoms: N1_8  and  C8_9 
REMARK    3  A    between atoms: C8_9  and  C9_10 
REMARK    4  A    between atoms: C16_18  and  C18_21 
ROOT
ATOM      1  C9  <0> d   1      -1.343   5.004   0.177  0.00  0.00     0.039 A 
ATOM      2  C10 <0> d   1      -2.414   5.769  -0.256  0.00  0.00     0.118 A 
ATOM      3  C11 <0> d   1      -2.389   7.156  -0.135  0.00  0.00     0.041 A 
ATOM      4  C12 <0> d   1      -1.305   7.782   0.412  0.00  0.00     0.021 A 
ATOM      5  C13 <0> d   1      -0.219   7.025   0.853  0.00  0.00     0.050 A 
ATOM      6  C14 <0> d   1      -0.236   5.623   0.741  0.00  0.00     0.100 A 
ATOM      7  O1  <0> d   1       0.816   4.893   1.162  0.00  0.00    -0.320 OA
ATOM      8  C15 <0> d   1       1.909   5.429   1.706  0.00  0.00     0.161 A 
ATOM      9  C16 <0> d   1       2.059   6.772   1.879  0.00  0.00     0.073 A 
ATOM     10  C17 <0> d   1       0.968   7.666   1.448  0.00  0.00     0.199 A 
ATOM     11  O2  <0> d   1       1.044   8.875   1.577  0.00  0.00    -0.286 OA
ATOM     12  O3  <0> d   1      -3.498   5.161  -0.802  0.00  0.00    -0.191 OA
ENDROOT
BRANCH   1  13
ATOM     13  C8  <0> d   1      -1.383   3.504   0.041  0.00  0.00     0.279 C 
BRANCH  13  14
ATOM     14  N1  <0> d   1      -0.819   3.115  -1.258  0.00  0.00    -0.063 N 
ATOM     15  C3  <0> d   1      -0.706   1.655  -1.367  0.00  0.00     0.188 C 
ATOM     16  C4  <0> d   1       0.017   1.293  -2.667  0.00  0.00     0.033 C 
ATOM     17  C5  <0> d   1      -0.770   1.853  -3.855  0.00  0.00     0.004 C 
ATOM     18  C6  <0> d   1      -0.915   3.368  -3.693  0.00  0.00     0.028 C 
ATOM     19  C7  <0> d   1      -1.611   3.670  -2.363  0.00  0.00     0.235 C 
ATOM     20  H24 <0> d   1       0.195   3.536  -1.328  0.00  0.00     0.280 HD
BRANCH  15  21
ATOM     21  C2  <0> d   1       0.088   1.115  -0.175  0.00  0.00     0.029 C 
ATOM     22  C1  <0> d   1       0.148  -0.412  -0.253  0.00  0.00     0.007 C 
ENDBRANCH  15  21
ENDBRANCH  13  14
ENDBRANCH   1  13
BRANCH   9  23
ATOM     23  C18 <0> d   1       3.287   7.321   2.486  0.00  0.00     0.115 A 
ATOM     24  S1  <0> d   1       3.713   9.027   2.807  0.00  0.00    -0.067 SA
ATOM     25  C24 <0> d   1       5.310   8.726   3.525  0.00  0.00     0.035 A 
ATOM     26  C19 <0> d   1       5.409   7.316   3.461  0.00  0.00     0.075 A 
ATOM     27  C23 <0> d   1       6.307   9.514   4.045  0.00  0.00     0.021 A 
ATOM     28  N2  <0> d   1       4.349   6.680   2.925  0.00  0.00    -0.239 NA
ATOM     29  C20 <0> d   1       6.605   6.752   3.966  0.00  0.00     0.033 A 
ATOM     30  C21 <0> d   1       7.586   7.541   4.479  0.00  0.00     0.002 A 
ATOM     31  C22 <0> d   1       7.459   8.922   4.528  0.00  0.00     0.002 A 
ENDBRANCH   9  23
TORSDOF 4
