REMARK  5 active torsions:
REMARK  status: ('A' for Active; 'I' for Inactive)
REMARK    1  A    between atoms: C4_4  and  C7_7 
REMARK    2  A    between atoms: C8_8  and  C9_9 
REMARK    3  A    between atoms: C9_9  and  N1_10 
REMARK    4  A    between atoms: N2_13  and  C14_16 
REMARK    5  A    between atoms: C14_16  and  C15_17 
ROOT
ATOM      1  N1  <0> d   1      -0.806   3.062  -1.200  0.00  0.00    -0.065 N 
ATOM      2  C10 <0> d   1      -0.754   1.593  -1.231  0.00  0.00     0.265 C 
ATOM      3  C11 <0> d   1      -0.013   1.086   0.008  0.00  0.00     0.300 C 
ATOM      4  N2  <0> d   1      -0.701   1.560   1.216  0.00  0.00     0.096 N 
ATOM      5  C12 <0> d   1      -0.754   3.029   1.247  0.00  0.00     0.300 C 
ATOM      6  C13 <0> d   1      -1.495   3.536   0.008  0.00  0.00     0.265 C 
ATOM      7  H23 <0> d   1       0.227   3.438  -1.172  0.00  0.00     0.280 HD
ENDROOT
BRANCH   4   8
ATOM      8  C14 <0> d   1      -0.062   1.031   2.429  0.00  0.00     0.312 C 
BRANCH   8   9
ATOM      9  C15 <0> d   1      -0.631   1.724   3.640  0.00  0.00    -0.011 A 
ATOM     10  C19 <0> d   1      -1.923   1.321   4.199  0.00  0.00     0.008 A 
ATOM     11  C18 <0> d   1      -2.416   1.996   5.332  0.00  0.00     0.093 A 
ATOM     12  C20 <0> d   1      -2.664   0.282   3.626  0.00  0.00     0.041 A 
ATOM     13  O2  <0> d   1      -1.697   2.998   5.883  0.00  0.00    -0.275 OA
ATOM     14  C23 <0> d   1      -3.638   1.622   5.870  0.00  0.00     0.080 A 
ATOM     15  C17 <0> d   1      -0.513   3.372   5.375  0.00  0.00     0.288 A 
ATOM     16  C16 <0> d   1       0.043   2.735   4.246  0.00  0.00     0.092 A 
ATOM     17  O1  <0> d   1       0.100   4.281   5.905  0.00  0.00    -0.260 OA
ATOM     18  C22 <0> d   1      -4.359   0.592   5.290  0.00  0.00     0.131 A 
ATOM     19  C21 <0> d   1      -3.866  -0.074   4.168  0.00  0.00     0.071 A 
ATOM     20  O3  <0> d   1      -5.556   0.227   5.817  0.00  0.00    -0.190 OA
ATOM     21 Cl1  <0> d   1      -4.786  -1.363   3.457  0.00  0.00    -0.081 Cl
ENDBRANCH   8   9
ENDBRANCH   4   8
BRANCH   1  22
ATOM     22  C9  <0> d   1      -1.445   3.591  -2.413  0.00  0.00     0.262 C 
BRANCH  22  23
ATOM     23  C8  <0> d   1      -1.263   5.086  -2.464  0.00  0.00     0.001 C 
ATOM     24  C7  <0> d   1      -0.710   5.651  -3.529  0.00  0.00     0.009 C 
BRANCH  24  25
ATOM     25  C4  <0> d   1      -0.532   7.117  -3.579  0.00  0.00    -0.036 A 
ATOM     26  C3  <0> d   1       0.050   7.714  -4.698  0.00  0.00     0.011 A 
ATOM     27  C2  <0> d   1       0.213   9.084  -4.739  0.00  0.00     0.001 A 
ATOM     28  C1  <0> d   1      -0.199   9.864  -3.673  0.00  0.00     0.000 A 
ATOM     29  C6  <0> d   1      -0.775   9.278  -2.561  0.00  0.00     0.001 A 
ATOM     30  C5  <0> d   1      -0.950   7.911  -2.510  0.00  0.00     0.011 A 
ENDBRANCH  24  25
ENDBRANCH  22  23
ENDBRANCH   1  22
TORSDOF 5
